<?xml version="1.0" encoding="UTF-8"?>

<!-- generated on 2025-03-13 15:13:07 by Eclipse SUMO netedit Version 1.19.0
-->

<additional xmlns:xsi="http://www.w3.org/2001/XMLSchema-instance" xsi:noNamespaceSchemaLocation="http://sumo.dlr.de/xsd/additional_file.xsd">
    <timedEvent type="SaveTLSProgram" source="KUF_intersection" dest="kuf_timing.xml"/>
    <timedEvent type="SaveTLSProgram" source="KBT_intersection" dest="kbt_timing.xml"/>
    <timedEvent type="SaveTLSProgram" source="KA_intersection" dest="ka_timing.xml"/>

    <!-- Detectors -->
    <laneAreaDetector id="e2_0" lane="L1_4" pos="0.00" length="383.00" period="300.00" file="lanedet_out.xml" friendlyPos="1"/>
    <laneAreaDetector id="e2_1" lane="L1_3" pos="0.00" length="383.00" period="300.00" file="lanedet_out.xml" friendlyPos="1"/>
    <laneAreaDetector id="e2_10" lane="R3_1" pos="0.00" length="47.00" period="300.00" file="lanedet_out.xml"/>
    <laneAreaDetector id="e2_11" lane="R3_2" pos="0.00" length="47.00" period="300.00" file="lanedet_out.xml"/>
    <laneAreaDetector id="e2_12" lane="R3_3" pos="0.00" length="47.00" period="300.00" file="lanedet_out.xml"/>
    <laneAreaDetector id="e2_13" lane="R4_0" pos="0.00" length="160.00" period="300.00" file="lanedet_out.xml"/>
    <laneAreaDetector id="e2_14" lane="R4_1" pos="0.00" length="160.00" period="300.00" file="lanedet_out.xml"/>
    <laneAreaDetector id="e2_15" lane="R4_2" pos="0.00" length="160.00" period="300.00" file="lanedet_out.xml"/>
    <laneAreaDetector id="e2_16" lane="L2_4" pos="0.00" length="215.00" period="300.00" file="lanedet_out.xml"/>
    <laneAreaDetector id="e2_17" lane="L2_3" pos="0.00" length="215.00" period="300.00" file="lanedet_out.xml"/>
    <laneAreaDetector id="e2_18" lane="L2_2" pos="0.00" length="215.00" period="300.00" file="lanedet_out.xml"/>
    <laneAreaDetector id="e2_19" lane="L2_1" pos="0.00" length="215.00" period="300.00" file="lanedet_out.xml"/>
    <laneAreaDetector id="e2_2" lane="L1_2" pos="0.00" length="383.00" period="300.00" file="lanedet_out.xml" friendlyPos="1"/>
    <laneAreaDetector id="e2_20" lane="L2_0" pos="0.00" length="215.00" period="300.00" file="lanedet_out.xml"/>
    <laneAreaDetector id="e2_21" lane="univ_road-upper_in_0" pos="0.00" length="266.00" period="300.00" file="lanedet_out.xml"/>
    <laneAreaDetector id="e2_22" lane="univ_road-lower_in_0" pos="0.00" length="274.00" period="300.00" file="lanedet_out.xml"/>
    <laneAreaDetector id="e2_23" lane="f.dela_rosa-road_0" pos="0.00" length="256.00" period="300.00" file="lanedet_out.xml"/>
    <laneAreaDetector id="e2_24" lane="f.dela_rosa-road_1" pos="0.00" length="256.00" period="300.00" file="lanedet_out.xml"/>
    <laneAreaDetector id="e2_25" lane="R5_0" pos="0.00" length="464.00" period="300.00" file="lanedet_out.xml"/>
    <laneAreaDetector id="e2_26" lane="R5_1" pos="0.00" length="464.00" period="300.00" file="lanedet_out.xml"/>
    <laneAreaDetector id="e2_27" lane="R5_2" pos="0.00" length="464.00" period="300.00" file="lanedet_out.xml"/>
    <laneAreaDetector id="e2_28" lane="L3_0" pos="0.00" length="551.00" period="300.00" file="lanedet_out.xml"/>
    <laneAreaDetector id="e2_29" lane="L3_1" pos="0.00" length="551.00" period="300.00" file="lanedet_out.xml"/>
    <laneAreaDetector id="e2_3" lane="L1_1" pos="0.00" length="383.00" period="300.00" file="lanedet_out.xml" friendlyPos="1"/>
    <laneAreaDetector id="e2_30" lane="L3_2" pos="0.00" length="551.00" period="300.00" file="lanedet_out.xml"/>
    <laneAreaDetector id="e2_31" lane="L3_3" pos="0.00" length="551.00" period="300.00" file="lanedet_out.xml"/>
    <laneAreaDetector id="e2_32" lane="L3_4" pos="0.00" length="551.00" period="300.00" file="lanedet_out.xml"/>
    <laneAreaDetector id="e2_33" lane="L4_1" pos="0.00" length="166.00" period="300.00" file="lanedet_out.xml"/>
    <laneAreaDetector id="e2_34" lane="L4_0" pos="0.00" length="166.00" period="300.00" file="lanedet_out.xml"/>
    <laneAreaDetector id="e2_35" lane="L5_2" pos="0.00" length="190.00" period="300.00" file="lanedet_out.xml"/>
    <laneAreaDetector id="e2_36" lane="L5_1" pos="0.00" length="190.00" period="300.00" file="lanedet_out.xml"/>
    <laneAreaDetector id="e2_37" lane="L5_0" pos="0.00" length="190.00" period="300.00" file="lanedet_out.xml"/>
    <laneAreaDetector id="e2_38" lane="R6_0" pos="0.00" length="464.00" period="300.00" file="lanedet_out.xml"/>
    <laneAreaDetector id="e2_39" lane="R6_1" pos="0.00" length="464.00" period="300.00" file="lanedet_out.xml"/>
    <laneAreaDetector id="e2_4" lane="L1_0" pos="0.00" length="383.00" period="300.00" file="lanedet_out.xml" friendlyPos="1"/>
    <laneAreaDetector id="e2_40" lane="R7_0" pos="0.00" length="168.00" period="300.00" file="lanedet_out.xml"/>
    <laneAreaDetector id="e2_41" lane="R7_1" pos="0.00" length="168.00" period="300.00" file="lanedet_out.xml"/>
    <laneAreaDetector id="e2_42" lane="aurora-upper_in_0" pos="0.00" length="232.00" period="300.00" file="lanedet_out.xml"/>
    <laneAreaDetector id="e2_43" lane="aurora-upper_in_1" pos="0.00" length="232.00" period="300.00" file="lanedet_out.xml"/>
    <laneAreaDetector id="e2_44" lane="aurora-upper_in_2" pos="0.00" length="232.00" period="300.00" file="lanedet_out.xml"/>
    <laneAreaDetector id="e2_45" lane="aurora-upper_in_3" pos="0.00" length="232.00" period="300.00" file="lanedet_out.xml"/>
    <laneAreaDetector id="e2_46" lane="aurora-lower_in_0" pos="0.00" length="244.00" period="300.00" file="lanedet_out.xml"/>
    <laneAreaDetector id="e2_47" lane="aurora-lower_in_1" pos="0.00" length="244.00" period="300.00" file="lanedet_out.xml"/>
    <laneAreaDetector id="e2_48" lane="aurora-lower_in_2" pos="0.00" length="244.00" period="300.00" file="lanedet_out.xml"/>
    <laneAreaDetector id="e2_49" lane="aurora-lower_in_3" pos="0.00" length="244.00" period="300.00" file="lanedet_out.xml"/>
    <laneAreaDetector id="e2_5" lane="thornton_drive-extension-in_0" pos="0.00" length="104.00" period="300.00" file="lanedet_out.xml"/>
    <laneAreaDetector id="e2_6" lane="b.gonzales-road-in_0" pos="0.00" length="130.00" period="300.00" file="lanedet_out.xml"/>
    <laneAreaDetector id="e2_7" lane="thornton_drive-upper_in_0" pos="0.00" length="50.00" period="300.00" file="lanedet_out.xml"/>
    <laneAreaDetector id="e2_8" lane="thornton_drive-lower_in_0" pos="0.00" length="44.00" period="300.00" file="lanedet_out.xml"/>
    <laneAreaDetector id="e2_9" lane="R3_0" pos="0.00" length="47.00" period="300.00" file="lanedet_out.xml"/>

    <inductionLoop id="i2_0" lane="L1_4" pos="-1.00" period="300.00" file="indloop_out.xml"/>
    <inductionLoop id="i2_1" lane="L1_3" pos="-1.00" period="300.00" file="indloop_out.xml"/>
    <inductionLoop id="i2_10" lane="R3_1" pos="-1.00" period="300.00" file="indloop_out.xml"/>
    <inductionLoop id="i2_11" lane="R3_2" pos="-1.00" period="300.00" file="indloop_out.xml"/>
    <inductionLoop id="i2_12" lane="R3_3" pos="-1.00" period="300.00" file="indloop_out.xml"/>
    <inductionLoop id="i2_13" lane="R4_0" pos="-1.00" period="300.00" file="indloop_out.xml"/>
    <inductionLoop id="i2_14" lane="R4_1" pos="-1.00" period="300.00" file="indloop_out.xml"/>
    <inductionLoop id="i2_15" lane="R4_2" pos="-1.00" period="300.00" file="indloop_out.xml"/>
    <inductionLoop id="i2_16" lane="L2_4" pos="-1.00" period="300.00" file="indloop_out.xml"/>
    <inductionLoop id="i2_17" lane="L2_3" pos="-1.00" period="300.00" file="indloop_out.xml"/>
    <inductionLoop id="i2_18" lane="L2_2" pos="-1.00" period="300.00" file="indloop_out.xml"/>
    <inductionLoop id="i2_19" lane="L2_1" pos="-1.00" period="300.00" file="indloop_out.xml"/>
    <inductionLoop id="i2_2" lane="L1_2" pos="-1.00" period="300.00" file="indloop_out.xml"/>
    <inductionLoop id="i2_20" lane="L2_0" pos="-1.00" period="300.00" file="indloop_out.xml"/>
    <inductionLoop id="i2_21" lane="univ_road-upper_in_0" pos="-1.00" period="300.00" file="indloop_out.xml"/>
    <inductionLoop id="i2_22" lane="univ_road-lower_in_0" pos="-1.00" period="300.00" file="indloop_out.xml"/>
    <inductionLoop id="i2_23" lane="f.dela_rosa-road_0" pos="-1.00" period="300.00" file="indloop_out.xml"/>
    <inductionLoop id="i2_24" lane="f.dela_rosa-road_1" pos="-1.00" period="300.00" file="indloop_out.xml"/>
    <inductionLoop id="i2_25" lane="R5_0" pos="-1.00" period="300.00" file="indloop_out.xml"/>
    <inductionLoop id="i2_26" lane="R5_1" pos="-1.00" period="300.00" file="indloop_out.xml"/>
    <inductionLoop id="i2_27" lane="R5_2" pos="-1.00" period="300.00" file="indloop_out.xml"/>
    <inductionLoop id="i2_28" lane="L3_0" pos="-1.00" period="300.00" file="indloop_out.xml"/>
    <inductionLoop id="i2_29" lane="L3_1" pos="-1.00" period="300.00" file="indloop_out.xml"/>
    <inductionLoop id="i2_3" lane="L1_1" pos="-1.00" period="300.00" file="indloop_out.xml"/>
    <inductionLoop id="i2_30" lane="L3_2" pos="-1.00" period="300.00" file="indloop_out.xml"/>
    <inductionLoop id="i2_31" lane="L3_3" pos="-1.00" period="300.00" file="indloop_out.xml"/>
    <inductionLoop id="i2_32" lane="L3_4" pos="-1.00" period="300.00" file="indloop_out.xml"/>
    <inductionLoop id="i2_33" lane="L4_1" pos="-1.00" period="300.00" file="indloop_out.xml"/>
    <inductionLoop id="i2_34" lane="L4_0" pos="-1.00" period="300.00" file="indloop_out.xml"/>
    <inductionLoop id="i2_35" lane="L5_2" pos="-1.00" period="300.00" file="indloop_out.xml"/>
    <inductionLoop id="i2_36" lane="L5_1" pos="-1.00" period="300.00" file="indloop_out.xml"/>
    <inductionLoop id="i2_37" lane="L5_0" pos="-1.00" period="300.00" file="indloop_out.xml"/>
    <inductionLoop id="i2_38" lane="R6_0" pos="-1.00" period="300.00" file="indloop_out.xml"/>
    <inductionLoop id="i2_39" lane="R6_1" pos="-1.00" period="300.00" file="indloop_out.xml"/>
    <inductionLoop id="i2_4" lane="L1_0" pos="-1.00" period="300.00" file="indloop_out.xml"/>
    <inductionLoop id="i2_40" lane="R7_0" pos="-1.00" period="300.00" file="indloop_out.xml"/>
    <inductionLoop id="i2_41" lane="R7_1" pos="-1.00" period="300.00" file="indloop_out.xml"/>
    <inductionLoop id="i2_42" lane="aurora-upper_in_0" pos="-1.00" period="300.00" file="indloop_out.xml"/>
    <inductionLoop id="i2_43" lane="aurora-upper_in_1" pos="-1.00" period="300.00" file="indloop_out.xml"/>
    <inductionLoop id="i2_44" lane="aurora-upper_in_2" pos="-1.00" period="300.00" file="indloop_out.xml"/>
    <inductionLoop id="i2_45" lane="aurora-upper_in_3" pos="-1.00" period="300.00" file="indloop_out.xml"/>
    <inductionLoop id="i2_46" lane="aurora-lower_in_0" pos="-1.00" period="300.00" file="indloop_out.xml"/>
    <inductionLoop id="i2_47" lane="aurora-lower_in_1" pos="-1.00" period="300.00" file="indloop_out.xml"/>
    <inductionLoop id="i2_48" lane="aurora-lower_in_2" pos="-1.00" period="300.00" file="indloop_out.xml"/>
    <inductionLoop id="i2_49" lane="aurora-lower_in_3" pos="-1.00" period="300.00" file="indloop_out.xml"/>
    <inductionLoop id="i2_5" lane="thornton_drive-extension-in_0" pos="-1.00" period="300.00" file="indloop_out.xml"/>
    <inductionLoop id="i2_6" lane="b.gonzales-road-in_0" pos="-1.00" period="300.00" file="indloop_out.xml"/>
    <inductionLoop id="i2_7" lane="thornton_drive-upper_in_0" pos="-1.00" period="300.00" file="indloop_out.xml"/>
    <inductionLoop id="i2_8" lane="thornton_drive-lower_in_0" pos="-1.00" period="300.00" file="indloop_out.xml"/>
    <inductionLoop id="i2_9" lane="R3_0" pos="-1.00" period="300.00" file="indloop_out.xml"/>
</additional>
