<?xml version="1.0" encoding="UTF-8"?>

<!-- generated on 2025-03-19 04:53:24 by Eclipse SUMO netedit Version 1.20.0
<configuration xmlns:xsi="http://www.w3.org/2001/XMLSchema-instance" xsi:noNamespaceSchemaLocation="http://sumo.dlr.de/xsd/neteditConfiguration.xsd">

    <input>
        <sumocfg-file value="C:\Users\User\OneDrive - University of the Philippines\_UPD\4th Year Final\CoE 199\osm.sumocfg"/>
        <additional-files value="C:\Users\User\OneDrive - University of the Philippines\_UPD\4th Year Final\CoE 199\detector.add.xml"/>
        <route-files value="C:\Users\User\OneDrive - University of the Philippines\_UPD\4th Year Final\CoE 199\demand.rou.xml"/>
        <sumo-net-file value="C:\Users\User\OneDrive - University of the Philippines\_UPD\4th Year Final\CoE 199\map.net.xml"/>
    </input>

    <output>
        <output-file value="C:\Users\User\OneDrive - University of the Philippines\_UPD\4th Year Final\CoE 199\map.net.xml"/>
        <output.street-names value="true"/>
    </output>

    <processing>
        <geometry.min-radius.fix.railways value="false"/>
        <geometry.max-grade.fix value="false"/>
        <offset.disable-normalization value="true"/>
        <lefthand value="0"/>
    </processing>

    <junctions>
        <no-turnarounds value="true"/>
        <junctions.corner-detail value="5"/>
        <junctions.limit-turn-speed value="5.50"/>
        <rectangular-lane-cut value="0"/>
    </junctions>

    <pedestrian>
        <walkingareas value="0"/>
    </pedestrian>

    <netedit>
        <ignore.routeelements value="false"/>
    </netedit>

</configuration>
-->

<net version="1.20" junctionCornerDetail="5" limitTurnSpeed="5.50" xmlns:xsi="http://www.w3.org/2001/XMLSchema-instance" xsi:noNamespaceSchemaLocation="http://sumo.dlr.de/xsd/net_file.xsd">

    <location netOffset="0.00,0.00" convBoundary="-324.10,-1431.17,234.85,382.34" origBoundary="-10000000000.00,-10000000000.00,10000000000.00,10000000000.00" projParameter="!"/>

    <edge id=":aurora-left-curve_0" function="internal">
        <lane id=":aurora-left-curve_0_0" index="0" allow="private passenger taxi motorcycle" speed="13.89" length="35.93" shape="-73.53,-1238.01 -77.86,-1240.92 -84.52,-1245.22 -93.48,-1250.37 -104.69,-1255.81"/>
    </edge>
    <edge id=":aurora-left-curve_1" function="internal">
        <lane id=":aurora-left-curve_1_0" index="0" allow="private passenger taxi motorcycle" speed="13.89" length="35.94" shape="-71.82,-1241.34 -104.69,-1255.81"/>
        <lane id=":aurora-left-curve_1_1" index="1" allow="private passenger taxi motorcycle" speed="13.89" length="35.94" shape="-70.52,-1244.27 -103.40,-1258.74"/>
        <lane id=":aurora-left-curve_1_2" index="2" allow="private passenger taxi motorcycle" speed="13.89" length="35.94" shape="-69.22,-1247.19 -102.12,-1261.67"/>
        <lane id=":aurora-left-curve_1_3" index="3" allow="private passenger taxi motorcycle" speed="13.89" length="35.94" shape="-67.92,-1250.12 -100.84,-1264.60"/>
    </edge>
    <edge id=":katip-aurora-intersection_0" function="internal">
        <lane id=":katip-aurora-intersection_0_0" index="0" allow="private passenger taxi motorcycle" speed="5.82" length="9.14" shape="0.97,-1208.80 -1.60,-1209.56 -3.46,-1209.19 -4.62,-1207.69 -5.08,-1205.06"/>
        <lane id=":katip-aurora-intersection_0_1" index="1" allow="private passenger taxi motorcycle" speed="6.72" length="12.63" shape="0.97,-1208.80 -2.98,-1210.11 -5.84,-1209.94 -7.60,-1208.29 -8.28,-1205.17"/>
    </edge>
    <edge id=":katip-aurora-intersection_2" function="internal">
        <lane id=":katip-aurora-intersection_2_0" index="0" allow="private passenger taxi motorcycle" speed="13.89" length="66.18" shape="0.97,-1208.80 -59.38,-1235.82"/>
        <lane id=":katip-aurora-intersection_2_1" index="1" allow="private passenger taxi motorcycle" speed="13.89" length="66.18" shape="2.31,-1211.70 -58.08,-1238.75"/>
        <lane id=":katip-aurora-intersection_2_2" index="2" allow="private passenger taxi motorcycle" speed="13.89" length="66.18" shape="3.66,-1214.60 -56.79,-1241.67"/>
    </edge>
    <edge id=":katip-aurora-intersection_5" function="internal">
        <lane id=":katip-aurora-intersection_5_0" index="0" allow="private passenger taxi motorcycle" speed="13.89" length="70.75" shape="3.66,-1214.60 -17.09,-1225.76 -31.79,-1237.53 -40.42,-1249.92 -42.98,-1262.93"/>
    </edge>
    <edge id=":katip-aurora-intersection_6" function="internal">
        <lane id=":katip-aurora-intersection_6_0" index="0" allow="private passenger taxi motorcycle" speed="13.89" length="66.28" shape="5.01,-1217.51 -55.49,-1244.60"/>
    </edge>
    <edge id=":katip-aurora-intersection_7" function="internal">
        <lane id=":katip-aurora-intersection_7_0" index="0" allow="private passenger taxi motorcycle" speed="13.89" length="67.02" shape="5.01,-1217.51 -14.91,-1228.14 -29.01,-1239.24 -37.31,-1250.80 -39.79,-1262.82"/>
    </edge>
    <edge id=":katip-aurora-intersection_8" function="internal">
        <lane id=":katip-aurora-intersection_8_0" index="0" allow="private passenger taxi motorcycle" speed="13.89" length="58.51" shape="-3.56,-1261.55 -10.85,-1254.19 -27.23,-1246.93 -45.08,-1242.01 -56.79,-1241.67"/>
        <lane id=":katip-aurora-intersection_8_1" index="1" allow="private passenger taxi motorcycle" speed="13.33" length="53.45" shape="-6.76,-1261.67 -13.34,-1254.74 -28.18,-1248.45 -44.48,-1244.49 -55.49,-1244.60"/>
    </edge>
    <edge id=":katip-aurora-intersection_10" function="internal">
        <lane id=":katip-aurora-intersection_10_0" index="0" allow="private passenger taxi motorcycle" speed="13.89" length="66.47" shape="-49.03,-1259.13 11.64,-1231.79"/>
        <lane id=":katip-aurora-intersection_10_1" index="1" allow="private passenger taxi motorcycle" speed="13.89" length="66.47" shape="-50.33,-1256.21 10.29,-1228.89"/>
        <lane id=":katip-aurora-intersection_10_2" index="2" allow="private passenger taxi motorcycle" speed="13.89" length="66.47" shape="-51.63,-1253.28 8.94,-1225.98"/>
        <lane id=":katip-aurora-intersection_10_3" index="3" allow="private passenger taxi motorcycle" speed="13.89" length="66.47" shape="-52.93,-1250.36 7.60,-1223.08"/>
    </edge>
    <edge id=":katip-aurora-intersection_14" function="internal">
        <lane id=":katip-aurora-intersection_14_0" index="0" allow="private passenger taxi motorcycle" speed="13.89" length="59.94" shape="-46.28,-1207.20 -38.46,-1214.40 -21.40,-1221.32 -2.98,-1225.87 8.94,-1225.98"/>
        <lane id=":katip-aurora-intersection_14_1" index="1" allow="private passenger taxi motorcycle" speed="13.66" length="54.90" shape="-43.09,-1207.01 -35.98,-1213.78 -20.48,-1219.77 -3.62,-1223.39 7.60,-1223.08"/>
    </edge>
    <edge id=":katip-b.gonzales-thornton-drive-intersection_0" function="internal">
        <lane id=":katip-b.gonzales-thornton-drive-intersection_0_0" index="0" allow="private passenger taxi motorcycle" speed="5.71" length="9.20" shape="-45.11,-3.47 -47.66,-4.48 -49.50,-4.25 -50.65,-2.78 -51.09,-0.08"/>
    </edge>
    <edge id=":katip-b.gonzales-thornton-drive-intersection_1" function="internal">
        <lane id=":katip-b.gonzales-thornton-drive-intersection_1_0" index="0" speed="13.89" length="43.65" shape="-45.11,-3.47 -52.54,-6.99 -64.99,-12.46 -77.53,-17.73 -85.21,-20.66"/>
    </edge>
    <edge id=":katip-b.gonzales-thornton-drive-intersection_2" function="internal">
        <lane id=":katip-b.gonzales-thornton-drive-intersection_2_0" index="0" allow="private passenger taxi motorcycle" speed="13.89" length="34.94" shape="-45.11,-3.47 -55.61,-10.04 -63.04,-16.24 -67.38,-22.08 -68.63,-27.54"/>
        <lane id=":katip-b.gonzales-thornton-drive-intersection_2_1" index="1" allow="private passenger taxi motorcycle" speed="13.89" length="32.84" shape="-45.11,-3.47 -54.25,-9.38 -60.68,-15.33 -64.41,-21.33 -65.44,-27.37"/>
    </edge>
    <edge id=":katip-b.gonzales-thornton-drive-intersection_4" function="internal">
        <lane id=":katip-b.gonzales-thornton-drive-intersection_4_0" index="0" allow="private passenger taxi motorcycle" speed="12.32" length="22.28" shape="-50.45,-26.56 -50.21,-19.38 -48.96,-13.64 -46.70,-9.34 -43.41,-6.48"/>
    </edge>
    <edge id=":katip-b.gonzales-thornton-drive-intersection_5" function="internal">
        <lane id=":katip-b.gonzales-thornton-drive-intersection_5_0" index="0" allow="private passenger taxi motorcycle" speed="13.89" length="26.62" shape="-50.45,-26.56 -51.09,-0.08"/>
        <lane id=":katip-b.gonzales-thornton-drive-intersection_5_1" index="1" allow="private passenger taxi motorcycle" speed="13.89" length="26.62" shape="-53.64,-26.74 -54.29,-0.17"/>
        <lane id=":katip-b.gonzales-thornton-drive-intersection_5_2" index="2" allow="private passenger taxi motorcycle" speed="13.89" length="26.62" shape="-56.84,-26.91 -57.49,-0.26"/>
        <lane id=":katip-b.gonzales-thornton-drive-intersection_5_3" index="3" allow="private passenger taxi motorcycle" speed="13.89" length="26.62" shape="-60.04,-27.08 -60.69,-0.35"/>
    </edge>
    <edge id=":katip-b.gonzales-thornton-drive-intersection_9" function="internal">
        <lane id=":katip-b.gonzales-thornton-drive-intersection_9_0" index="0" allow="private passenger taxi motorcycle" speed="6.07" length="9.07" shape="-84.32,-23.73 -81.77,-23.37 -79.91,-23.97 -78.72,-25.53 -78.22,-28.06"/>
        <lane id=":katip-b.gonzales-thornton-drive-intersection_9_1" index="1" allow="private passenger taxi motorcycle" speed="6.93" length="12.19" shape="-84.32,-23.73 -80.39,-23.02 -77.53,-23.47 -75.74,-25.09 -75.02,-27.89"/>
        <lane id=":katip-b.gonzales-thornton-drive-intersection_9_2" index="2" allow="private passenger taxi motorcycle" speed="7.71" length="15.41" shape="-84.32,-23.73 -79.01,-22.66 -75.15,-22.97 -72.76,-24.65 -71.83,-27.71"/>
    </edge>
    <edge id=":katip-b.gonzales-thornton-drive-intersection_12" function="internal">
        <lane id=":katip-b.gonzales-thornton-drive-intersection_12_0" index="0" speed="13.89" length="44.41" shape="-84.32,-23.73 -76.51,-20.79 -63.70,-15.50 -50.96,-10.02 -43.41,-6.48"/>
    </edge>
    <edge id=":katip-b.gonzales-thornton-drive-intersection_13" function="internal">
        <lane id=":katip-b.gonzales-thornton-drive-intersection_13_0" index="0" allow="private passenger taxi motorcycle" speed="13.84" length="35.88" shape="-84.32,-23.73 -73.81,-19.64 -66.37,-14.38 -61.99,-7.95 -60.69,-0.35"/>
    </edge>
    <edge id=":katip-b.gonzales-thornton-drive-intersection_14" function="internal">
        <lane id=":katip-b.gonzales-thornton-drive-intersection_14_0" index="0" allow="private passenger taxi motorcycle" speed="10.78" length="21.74" shape="-79.52,-0.87 -79.58,-8.82 -80.55,-14.77 -82.43,-18.71 -85.21,-20.66"/>
    </edge>
    <edge id=":katip-b.gonzales-thornton-drive-intersection_15" function="internal">
        <lane id=":katip-b.gonzales-thornton-drive-intersection_15_0" index="0" allow="private passenger taxi motorcycle" speed="13.89" length="27.05" shape="-79.52,-0.87 -78.22,-28.06"/>
        <lane id=":katip-b.gonzales-thornton-drive-intersection_15_1" index="1" allow="private passenger taxi motorcycle" speed="13.89" length="27.05" shape="-76.32,-0.78 -75.02,-27.89"/>
        <lane id=":katip-b.gonzales-thornton-drive-intersection_15_2" index="2" allow="private passenger taxi motorcycle" speed="13.89" length="27.05" shape="-73.12,-0.69 -71.83,-27.71"/>
        <lane id=":katip-b.gonzales-thornton-drive-intersection_15_3" index="3" allow="private passenger taxi motorcycle" speed="13.89" length="27.05" shape="-69.93,-0.60 -68.63,-27.54"/>
        <lane id=":katip-b.gonzales-thornton-drive-intersection_15_4" index="4" allow="private passenger taxi motorcycle" speed="13.89" length="27.05" shape="-66.73,-0.52 -65.44,-27.37"/>
    </edge>
    <edge id=":katip-b.gonzales-thornton-drive-intersection_20" function="internal">
        <lane id=":katip-b.gonzales-thornton-drive-intersection_20_0" index="0" allow="private passenger taxi motorcycle" speed="9.93" length="30.48" shape="-66.73,-0.52 -64.47,-8.01 -59.22,-10.97 -51.88,-10.20 -43.41,-6.48"/>
    </edge>
    <edge id=":katip-b.gonzales-thornton-drive-intersection_21" function="internal">
        <lane id=":katip-b.gonzales-thornton-drive-intersection_21_0" index="0" allow="private passenger taxi motorcycle" speed="4.62" length="4.41" shape="-66.73,-0.52 -65.15,-2.74 -63.62,-3.45"/>
    </edge>
    <edge id=":katip-b.gonzales-thornton-drive-intersection_22" function="internal">
        <lane id=":katip-b.gonzales-thornton-drive-intersection_22_0" index="0" allow="private passenger taxi motorcycle" speed="4.62" length="4.41" shape="-63.62,-3.45 -62.13,-2.65 -60.69,-0.35"/>
    </edge>
    <edge id=":katip-f.dela_rosa-univ_road-intersection_0" function="internal">
        <lane id=":katip-f.dela_rosa-univ_road-intersection_0_0" index="0" allow="private passenger taxi motorcycle" speed="5.83" length="8.86" shape="-35.52,-246.16 -37.94,-246.75 -39.71,-246.29 -40.84,-244.76 -41.33,-242.17"/>
    </edge>
    <edge id=":katip-f.dela_rosa-univ_road-intersection_1" function="internal">
        <lane id=":katip-f.dela_rosa-univ_road-intersection_1_0" index="0" allow="private passenger taxi motorcycle" speed="13.89" length="33.76" shape="-35.52,-246.16 -44.88,-250.96 -51.50,-256.52 -55.39,-262.84 -56.55,-269.92"/>
        <lane id=":katip-f.dela_rosa-univ_road-intersection_1_1" index="1" allow="private passenger taxi motorcycle" speed="13.74" length="31.68" shape="-35.52,-246.16 -43.49,-250.47 -49.12,-255.85 -52.41,-262.30 -53.35,-269.83"/>
    </edge>
    <edge id=":katip-f.dela_rosa-univ_road-intersection_3" function="internal">
        <lane id=":katip-f.dela_rosa-univ_road-intersection_3_0" index="0" allow="private passenger taxi motorcycle" speed="9.77" length="25.07" shape="-35.07,-264.56 -43.57,-263.40 -50.43,-263.54 -54.99,-265.52 -56.55,-269.92"/>
        <lane id=":katip-f.dela_rosa-univ_road-intersection_3_1" index="1" allow="private passenger taxi motorcycle" speed="9.10" length="21.58" shape="-35.07,-264.56 -43.16,-263.65 -48.90,-264.22 -52.30,-266.28 -53.35,-269.83"/>
    </edge>
    <edge id=":katip-f.dela_rosa-univ_road-intersection_5" function="internal">
        <lane id=":katip-f.dela_rosa-univ_road-intersection_5_0" index="0" allow="private passenger taxi motorcycle" speed="8.07" length="15.22" shape="-40.74,-269.47 -40.47,-264.34 -39.25,-260.71 -37.07,-258.58 -33.93,-257.96"/>
    </edge>
    <edge id=":katip-f.dela_rosa-univ_road-intersection_6" function="internal">
        <lane id=":katip-f.dela_rosa-univ_road-intersection_6_0" index="0" allow="private passenger taxi motorcycle" speed="9.86" length="20.07" shape="-40.74,-269.47 -40.57,-262.19 -39.47,-256.84 -37.43,-253.41 -34.46,-251.91"/>
    </edge>
    <edge id=":katip-f.dela_rosa-univ_road-intersection_7" function="internal">
        <lane id=":katip-f.dela_rosa-univ_road-intersection_7_0" index="0" allow="private passenger taxi motorcycle" speed="13.89" length="27.23" shape="-40.74,-269.47 -41.33,-242.17"/>
        <lane id=":katip-f.dela_rosa-univ_road-intersection_7_1" index="1" allow="private passenger taxi motorcycle" speed="13.89" length="27.23" shape="-43.94,-269.56 -44.53,-242.34"/>
        <lane id=":katip-f.dela_rosa-univ_road-intersection_7_2" index="2" allow="private passenger taxi motorcycle" speed="13.89" length="27.23" shape="-47.14,-269.65 -47.72,-242.51"/>
    </edge>
    <edge id=":katip-f.dela_rosa-univ_road-intersection_10" function="internal">
        <lane id=":katip-f.dela_rosa-univ_road-intersection_10_0" index="0" allow="private passenger taxi motorcycle" speed="7.50" length="14.00" shape="-72.27,-259.53 -69.71,-259.75 -67.84,-261.60 -66.66,-265.07 -66.15,-270.18"/>
        <lane id=":katip-f.dela_rosa-univ_road-intersection_10_1" index="1" allow="private passenger taxi motorcycle" speed="8.13" length="16.63" shape="-72.27,-259.53 -68.32,-259.50 -65.45,-261.25 -63.66,-264.78 -62.95,-270.09"/>
    </edge>
    <edge id=":katip-f.dela_rosa-univ_road-intersection_12" function="internal">
        <lane id=":katip-f.dela_rosa-univ_road-intersection_12_0" index="0" allow="private passenger taxi motorcycle" speed="13.89" length="38.41" shape="-72.27,-259.53 -62.85,-258.41 -51.30,-257.92 -40.65,-257.85 -33.93,-257.96"/>
    </edge>
    <edge id=":katip-f.dela_rosa-univ_road-intersection_13" function="internal">
        <lane id=":katip-f.dela_rosa-univ_road-intersection_13_0" index="0" allow="private passenger taxi motorcycle" speed="13.89" length="38.71" shape="-72.91,-256.39 -34.46,-251.91"/>
    </edge>
    <edge id=":katip-f.dela_rosa-univ_road-intersection_14" function="internal">
        <lane id=":katip-f.dela_rosa-univ_road-intersection_14_0" index="0" speed="12.18" length="30.39" shape="-72.91,-256.39 -61.71,-253.55 -53.78,-250.29 -49.12,-246.61 -47.72,-242.51"/>
    </edge>
    <edge id=":katip-f.dela_rosa-univ_road-intersection_15" function="internal">
        <lane id=":katip-f.dela_rosa-univ_road-intersection_15_0" index="0" allow="private passenger taxi motorcycle" speed="13.89" length="26.77" shape="-66.65,-243.54 -66.15,-270.18"/>
        <lane id=":katip-f.dela_rosa-univ_road-intersection_15_1" index="1" allow="private passenger taxi motorcycle" speed="13.89" length="26.77" shape="-63.45,-243.37 -62.95,-270.09"/>
        <lane id=":katip-f.dela_rosa-univ_road-intersection_15_2" index="2" allow="private passenger taxi motorcycle" speed="13.89" length="26.77" shape="-60.26,-243.20 -59.75,-270.00"/>
        <lane id=":katip-f.dela_rosa-univ_road-intersection_15_3" index="3" allow="private passenger taxi motorcycle" speed="13.89" length="26.77" shape="-57.06,-243.02 -56.55,-269.92"/>
    </edge>
    <edge id=":katip-f.dela_rosa-univ_road-intersection_19" function="internal">
        <lane id=":katip-f.dela_rosa-univ_road-intersection_19_0" index="0" allow="private passenger taxi motorcycle" speed="11.90" length="30.46" shape="-57.06,-243.02 -55.33,-249.27 -50.90,-253.84 -43.76,-256.74 -33.93,-257.96"/>
    </edge>
    <edge id=":katip-f.dela_rosa-univ_road-intersection_20" function="internal">
        <lane id=":katip-f.dela_rosa-univ_road-intersection_20_0" index="0" allow="private passenger taxi motorcycle" speed="13.89" length="26.98" shape="-53.86,-242.85 -53.35,-269.83"/>
    </edge>
    <edge id=":katip-f.dela_rosa-univ_road-intersection_21" function="internal">
        <lane id=":katip-f.dela_rosa-univ_road-intersection_21_0" index="0" allow="private passenger taxi motorcycle" speed="10.01" length="24.57" shape="-53.86,-242.85 -52.41,-247.92 -48.69,-251.11 -42.71,-252.45 -34.46,-251.91"/>
    </edge>
    <edge id=":katip-f.dela_rosa-univ_road-intersection_22" function="internal">
        <lane id=":katip-f.dela_rosa-univ_road-intersection_22_0" index="0" allow="private passenger taxi motorcycle" speed="4.64" length="8.99" shape="-53.86,-242.85 -52.20,-245.07 -50.63,-245.75 -49.13,-244.90 -47.72,-242.51"/>
    </edge>
    <edge id=":katip-left-curve_0" function="internal">
        <lane id=":katip-left-curve_0_0" index="0" allow="private passenger taxi motorcycle" speed="13.89" length="7.01" shape="-48.65,-1200.68 -48.66,-1202.74 -48.88,-1204.14 -49.31,-1205.52 -49.94,-1207.51"/>
    </edge>
    <edge id=":katip-left-curve_1" function="internal">
        <lane id=":katip-left-curve_1_0" index="0" allow="private passenger taxi motorcycle" speed="13.89" length="6.49" shape="-42.26,-1200.42 -42.38,-1202.33 -42.74,-1203.62 -43.07,-1204.91 -43.11,-1206.81"/>
    </edge>
    <edge id=":katip-mid-left-junc-UR_to_XV_0" function="internal">
        <lane id=":katip-mid-left-junc-UR_to_XV_0_0" index="0" allow="private passenger taxi motorcycle" speed="13.89" length="8.95" shape="-50.79,-821.95 -50.75,-824.46 -50.84,-826.18 -51.18,-827.87 -51.85,-830.28"/>
        <lane id=":katip-mid-left-junc-UR_to_XV_0_1" index="1" allow="private passenger taxi motorcycle" speed="13.89" length="8.95" shape="-47.59,-821.86 -47.54,-824.66 -47.65,-826.58 -48.03,-828.47 -48.78,-831.17"/>
    </edge>
    <edge id=":katip-mid-left-xavier_0" function="internal">
        <lane id=":katip-mid-left-xavier_0_0" index="0" allow="private passenger taxi motorcycle" speed="6.59" length="9.03" shape="-62.00,-1004.84 -59.57,-1005.18 -57.79,-1006.21 -56.68,-1007.94 -56.24,-1010.36"/>
    </edge>
    <edge id=":katip-mid-left-xavier_1" function="internal">
        <lane id=":katip-mid-left-xavier_1_0" index="0" allow="private passenger taxi motorcycle" speed="6.84" length="10.21" shape="-55.06,-995.88 -55.45,-998.34 -56.74,-1000.10 -58.93,-1001.16 -62.01,-1001.52"/>
    </edge>
    <edge id=":katip-mid-left-xavier_2" function="internal">
        <lane id=":katip-mid-left-xavier_2_0" index="0" allow="private passenger taxi motorcycle" speed="13.89" length="14.50" shape="-55.06,-995.88 -54.72,-1000.16 -54.10,-1003.06 -53.46,-1005.95 -53.04,-1010.23"/>
        <lane id=":katip-mid-left-xavier_2_1" index="1" allow="private passenger taxi motorcycle" speed="13.89" length="14.50" shape="-51.86,-995.81 -51.52,-1000.07 -50.91,-1002.96 -50.26,-1005.84 -49.85,-1010.10"/>
    </edge>
    <edge id=":katip-mid-right-junc-TD_to_UR_0" function="internal">
        <lane id=":katip-mid-right-junc-TD_to_UR_0_0" index="0" allow="private passenger taxi motorcycle" speed="13.89" length="8.20" shape="-50.05,-81.84 -49.93,-79.46 -49.45,-77.86 -48.97,-76.25 -48.80,-73.87"/>
        <lane id=":katip-mid-right-junc-TD_to_UR_0_1" index="1" allow="private passenger taxi motorcycle" speed="13.89" length="8.20" shape="-53.24,-82.01 -53.12,-79.62 -52.65,-78.00 -52.17,-76.38 -52.00,-73.99"/>
        <lane id=":katip-mid-right-junc-TD_to_UR_0_2" index="2" allow="private passenger taxi motorcycle" speed="13.89" length="8.20" shape="-56.44,-82.19 -56.32,-79.78 -55.85,-78.14 -55.36,-76.51 -55.20,-74.10"/>
        <lane id=":katip-mid-right-junc-TD_to_UR_0_3" index="3" allow="private passenger taxi motorcycle" speed="13.89" length="8.20" shape="-56.44,-82.19 -56.82,-79.79 -57.45,-78.20 -58.06,-76.61 -58.40,-74.21"/>
    </edge>
    <edge id=":katip-mid-right-junc-UR_to_AB_0" function="internal">
        <lane id=":katip-mid-right-junc-UR_to_AB_0_0" index="0" allow="private passenger taxi motorcycle" speed="13.89" length="7.24" shape="-24.87,-740.65 -24.96,-738.61 -24.60,-737.21 -24.15,-735.80 -23.98,-733.74"/>
        <lane id=":katip-mid-right-junc-UR_to_AB_0_1" index="1" allow="private passenger taxi motorcycle" speed="13.89" length="7.24" shape="-28.03,-741.18 -28.14,-739.02 -27.79,-737.54 -27.34,-736.05 -27.18,-733.86"/>
    </edge>
    <edge id=":thornton_drive-exit_0" function="internal">
        <lane id=":thornton_drive-exit_0_0" index="0" allow="private passenger motorcycle" speed="6.52" length="8.92" shape="-46.24,24.11 -48.67,24.40 -50.44,25.39 -51.55,27.08 -52.00,29.47"/>
        <lane id=":thornton_drive-exit_0_1" index="1" allow="private passenger motorcycle" speed="7.34" length="11.58" shape="-46.24,24.11 -50.07,24.37 -52.84,25.32 -54.55,26.97 -55.20,29.32"/>
        <lane id=":thornton_drive-exit_0_2" index="2" allow="private passenger motorcycle" speed="8.12" length="14.40" shape="-46.24,24.11 -51.47,24.33 -55.24,25.25 -57.55,26.87 -58.40,29.18"/>
    </edge>
    <edge id=":thornton_drive-exit_3" function="internal">
        <lane id=":thornton_drive-exit_3_0" index="0" allow="private passenger taxi motorcycle" speed="13.89" length="10.92" shape="-51.61,18.48 -52.00,29.47"/>
        <lane id=":thornton_drive-exit_3_1" index="1" allow="private passenger taxi motorcycle" speed="13.89" length="10.92" shape="-54.81,18.39 -55.20,29.32"/>
        <lane id=":thornton_drive-exit_3_2" index="2" allow="private passenger taxi motorcycle" speed="13.89" length="10.92" shape="-58.01,18.30 -58.40,29.18"/>
        <lane id=":thornton_drive-exit_3_3" index="3" allow="private passenger taxi motorcycle" speed="13.89" length="10.92" shape="-61.20,18.21 -61.59,29.04"/>
    </edge>
    <edge id=":thorton_drive_0" function="internal">
        <lane id=":thorton_drive_0_0" index="0" allow="private passenger motorcycle" speed="13.89" length="11.04" shape="9.26,25.70 -1.76,25.08"/>
    </edge>
    <edge id=":thorton_drive_1" function="internal">
        <lane id=":thorton_drive_1_0" index="0" allow="private passenger taxi motorcycle" speed="13.89" length="11.10" shape="9.26,25.70 6.20,25.33 4.02,24.43 1.95,23.08 -0.75,21.39"/>
    </edge>
    <edge id=":thorton_drive_2" function="internal">
        <lane id=":thorton_drive_2_0" index="0" allow="private passenger taxi motorcycle" speed="13.89" length="9.44" shape="0.89,18.47 3.26,19.99 4.89,21.15 6.64,21.89 9.34,22.20"/>
    </edge>

    <edge id="L1" from="katip-top_left" to="katip-b.gonzales-thornton-drive-intersection" name="Katipunan Avenue" priority="-1" spreadType="center" shape="-90.02,382.34 -72.39,-17.34">
        <lane id="L1_0" index="0" allow="private passenger taxi motorcycle" speed="13.89" length="383.41" shape="-96.41,382.06 -79.52,-0.87"/>
        <lane id="L1_1" index="1" allow="private passenger taxi motorcycle" speed="13.89" length="383.41" shape="-93.22,382.20 -76.32,-0.78"/>
        <lane id="L1_2" index="2" allow="private passenger taxi motorcycle" speed="13.89" length="383.41" shape="-90.02,382.34 -73.12,-0.69"/>
        <lane id="L1_3" index="3" allow="private passenger taxi motorcycle" speed="13.89" length="383.41" shape="-86.82,382.48 -69.93,-0.60"/>
        <lane id="L1_4" index="4" allow="private passenger taxi motorcycle" speed="13.89" length="383.41" shape="-83.63,382.62 -66.73,-0.52"/>
    </edge>
    <edge id="L2" from="katip-b.gonzales-thornton-drive-intersection" to="katip-f.dela_rosa-univ_road-intersection" name="Katipunan Avenue" priority="-1" spreadType="center" shape="-72.39,-17.28 -59.78,-252.05">
        <lane id="L2_0" index="0" allow="private passenger taxi motorcycle" speed="13.89" length="215.79" shape="-78.22,-28.06 -66.65,-243.54"/>
        <lane id="L2_1" index="1" allow="private passenger taxi motorcycle" speed="13.89" length="215.79" shape="-75.02,-27.89 -63.45,-243.37"/>
        <lane id="L2_2" index="2" allow="private passenger taxi motorcycle" speed="13.89" length="215.79" shape="-71.83,-27.71 -60.26,-243.20"/>
        <lane id="L2_3" index="3" allow="private passenger taxi motorcycle" speed="13.89" length="215.79" shape="-68.63,-27.54 -57.06,-243.02"/>
        <lane id="L2_4" index="4" allow="private passenger taxi motorcycle" speed="13.89" length="215.79" shape="-65.44,-27.37 -53.86,-242.85"/>
    </edge>
    <edge id="L3" from="katip-f.dela_rosa-univ_road-intersection" to="katip-mid-left-junc-UR_to_XV" priority="-1" spreadType="center" shape="-60.30,-250.33 -44.69,-811.21">
        <lane id="L3_0" index="0" allow="private passenger taxi motorcycle" speed="13.89" length="551.98" shape="-66.15,-270.18 -50.79,-821.95"/>
        <lane id="L3_1" index="1" allow="private passenger taxi motorcycle" speed="13.89" length="551.98" shape="-62.95,-270.09 -47.59,-821.86"/>
        <lane id="L3_2" index="2" allow="private passenger taxi motorcycle" speed="13.89" length="551.98" shape="-59.75,-270.00 -44.40,-821.78"/>
        <lane id="L3_3" index="3" allow="private passenger taxi motorcycle" speed="13.89" length="551.98" shape="-56.55,-269.92 -41.20,-821.69"/>
        <lane id="L3_4" index="4" allow="private passenger taxi motorcycle" speed="13.89" length="551.98" shape="-53.35,-269.83 -38.00,-821.60"/>
    </edge>
    <edge id="L4" from="katip-mid-left-junc-UR_to_XV" to="katip-mid-left-xavier" priority="-1" spreadType="center" shape="-44.69,-811.21 -56.48,-852.12 -53.29,-1004.06">
        <lane id="L4_0" index="0" allow="private passenger taxi motorcycle" speed="13.89" length="166.02" shape="-51.85,-830.28 -58.08,-851.91 -55.06,-995.88"/>
        <lane id="L4_1" index="1" allow="private passenger taxi motorcycle" speed="13.89" length="166.02" shape="-48.78,-831.17 -54.88,-852.33 -51.86,-995.81"/>
    </edge>
    <edge id="L5" from="katip-mid-left-xavier" to="katip-left-curve" priority="-1" spreadType="center">
        <lane id="L5_0" index="0" allow="private passenger taxi motorcycle" speed="13.89" length="190.47" shape="-56.24,-1010.36 -48.65,-1200.68"/>
        <lane id="L5_1" index="1" allow="private passenger taxi motorcycle" speed="13.89" length="190.47" shape="-53.04,-1010.23 -45.46,-1200.55"/>
        <lane id="L5_2" index="2" allow="private passenger taxi motorcycle" speed="13.89" length="190.47" shape="-49.85,-1010.10 -42.26,-1200.42"/>
    </edge>
    <edge id="L6" from="katip-left-curve" to="katip-aurora-intersection" priority="-1" spreadType="center" shape="-45.62,-1196.44 -42.10,-1236.66">
        <lane id="L6_0" index="0" allow="private passenger taxi motorcycle" speed="13.89" length="0.20" shape="-46.30,-1207.01 -46.28,-1207.20"/>
        <lane id="L6_1" index="1" allow="private passenger taxi motorcycle" speed="13.89" length="0.20" shape="-43.11,-1206.81 -43.09,-1207.01"/>
    </edge>
    <edge id="L7" from="katip-aurora-intersection" to="katip-bottom_left" priority="-1" spreadType="center" shape="-42.31,-1236.30 -35.53,-1431.17">
        <lane id="L7_0" index="0" allow="private passenger taxi motorcycle" speed="13.89" length="168.40" shape="-42.98,-1262.93 -37.13,-1431.23"/>
        <lane id="L7_1" index="1" allow="private passenger taxi motorcycle" speed="13.89" length="168.40" shape="-39.79,-1262.82 -33.93,-1431.11"/>
    </edge>
    <edge id="R1" from="thornton_drive-exit" to="katip-top_right" name="Katipunan Avenue" priority="-1" spreadType="center">
        <lane id="R1_0" index="0" allow="private passenger taxi motorcycle" speed="13.89" length="347.53" shape="-52.00,29.47 -67.32,376.66"/>