<?xml version="1.0" encoding="UTF-8"?>

<!-- generated on 2025-01-29 23:46:02 by Eclipse SUMO netedit Version 1.20.0
<configuration xmlns:xsi="http://www.w3.org/2001/XMLSchema-instance" xsi:noNamespaceSchemaLocation="http://sumo.dlr.de/xsd/neteditConfiguration.xsd">

    <input>
        <sumo-net-file value="C:\Users\User\OneDrive - University of the Philippines\_UPD\4th Year Final\CoE 199\network new.net.xml"/>
    </input>

    <output>
        <output-file value="C:\Users\User\OneDrive - University of the Philippines\_UPD\4th Year Final\CoE 199\network new.net.xml"/>
    </output>

    <processing>
        <geometry.min-radius.fix.railways value="false"/>
        <geometry.max-grade.fix value="false"/>
        <offset.disable-normalization value="true"/>
        <lefthand value="0"/>
    </processing>

    <junctions>
        <no-turnarounds value="true"/>
        <junctions.corner-detail value="5"/>
        <junctions.limit-turn-speed value="5.50"/>
        <rectangular-lane-cut value="0"/>
    </junctions>

    <pedestrian>
        <walkingareas value="0"/>
    </pedestrian>

</configuration>
-->

<net version="1.20" junctionCornerDetail="5" limitTurnSpeed="5.50" xmlns:xsi="http://www.w3.org/2001/XMLSchema-instance" xsi:noNamespaceSchemaLocation="http://sumo.dlr.de/xsd/net_file.xsd">

    <location netOffset="0.00,0.00" convBoundary="-324.10,-1431.17,234.85,382.34" origBoundary="-10000000000.00,-10000000000.00,10000000000.00,10000000000.00" projParameter="!"/>

    <edge id=":J10_0" function="internal">
        <lane id=":J10_0_0" index="0" allow="private passenger taxi motorcycle" speed="13.89" length="12.77" shape="-50.90,-818.13 -50.74,-821.78 -50.68,-824.30 -50.97,-826.77 -51.85,-830.28"/>
        <lane id=":J10_0_1" index="1" allow="private passenger taxi motorcycle" speed="13.89" length="12.77" shape="-47.70,-818.05 -47.54,-821.98 -47.49,-824.70 -47.81,-827.38 -48.78,-831.17"/>
    </edge>
    <edge id=":J10_2" function="internal">
        <lane id=":J10_2_0" index="0" allow="private passenger motorcycle" speed="13.89" length="7.77" shape="-44.50,-817.96 -44.20,-820.35 -43.64,-821.94 -43.09,-823.53 -42.82,-825.92"/>
        <lane id=":J10_2_1" index="1" allow="private passenger motorcycle" speed="13.89" length="7.77" shape="-41.30,-817.87 -41.01,-820.00 -40.45,-821.42 -39.90,-822.83 -39.63,-824.96"/>
    </edge>
    <edge id=":J14_0" function="internal">
        <lane id=":J14_0_0" index="0" allow="private passenger taxi motorcycle" speed="13.89" length="7.01" shape="-48.65,-1200.68 -48.66,-1202.74 -48.88,-1204.14 -49.31,-1205.52 -49.94,-1207.51"/>
    </edge>
    <edge id=":J14_1" function="internal">
        <lane id=":J14_1_0" index="0" allow="private passenger taxi motorcycle" speed="13.89" length="6.49" shape="-42.26,-1200.42 -42.38,-1202.33 -42.74,-1203.62 -43.07,-1204.91 -43.11,-1206.81"/>
    </edge>
    <edge id=":J17_0" function="internal">
        <lane id=":J17_0_0" index="0" allow="private passenger taxi motorcycle" speed="13.89" length="8.21" shape="-50.05,-81.85 -49.93,-79.45 -49.46,-77.83 -48.99,-76.21 -48.85,-73.82"/>
        <lane id=":J17_0_1" index="1" allow="private passenger taxi motorcycle" speed="13.89" length="8.21" shape="-53.24,-82.02 -53.12,-79.62 -52.66,-77.99 -52.18,-76.37 -52.04,-73.96"/>
        <lane id=":J17_0_2" index="2" allow="private passenger taxi motorcycle" speed="13.89" length="8.21" shape="-56.44,-82.20 -56.32,-79.78 -55.85,-78.15 -55.38,-76.52 -55.24,-74.11"/>
        <lane id=":J17_0_3" index="3" allow="private passenger taxi motorcycle" speed="13.89" length="8.21" shape="-56.44,-82.20 -56.82,-79.81 -57.45,-78.23 -58.08,-76.65 -58.44,-74.26"/>
    </edge>
    <edge id=":J18_0" function="internal">
        <lane id=":J18_0_0" index="0" allow="private passenger taxi motorcycle" speed="6.59" length="9.03" shape="-62.00,-1004.84 -59.57,-1005.18 -57.79,-1006.21 -56.68,-1007.94 -56.24,-1010.36"/>
    </edge>
    <edge id=":J18_1" function="internal">
        <lane id=":J18_1_0" index="0" allow="private passenger taxi motorcycle" speed="6.84" length="10.21" shape="-55.06,-995.88 -55.45,-998.34 -56.74,-1000.10 -58.93,-1001.16 -62.01,-1001.52"/>
    </edge>
    <edge id=":J18_2" function="internal">
        <lane id=":J18_2_0" index="0" allow="private passenger taxi motorcycle" speed="13.89" length="14.50" shape="-55.06,-995.88 -54.72,-1000.16 -54.10,-1003.06 -53.46,-1005.95 -53.04,-1010.23"/>
        <lane id=":J18_2_1" index="1" allow="private passenger taxi motorcycle" speed="13.89" length="14.50" shape="-51.86,-995.81 -51.52,-1000.07 -50.91,-1002.96 -50.26,-1005.84 -49.85,-1010.10"/>
    </edge>
    <edge id=":J9_0" function="internal">
        <lane id=":J9_0_0" index="0" allow="private passenger taxi motorcycle" speed="13.89" length="7.24" shape="-24.87,-740.65 -24.96,-738.61 -24.60,-737.21 -24.15,-735.80 -23.98,-733.74"/>
        <lane id=":J9_0_1" index="1" allow="private passenger taxi motorcycle" speed="13.89" length="7.24" shape="-28.03,-741.18 -28.14,-739.02 -27.79,-737.54 -27.34,-736.05 -27.18,-733.86"/>
    </edge>
    <edge id=":KAW_junc_0" function="internal">
        <lane id=":KAW_junc_0_0" index="0" allow="private passenger taxi motorcycle" speed="13.89" length="35.93" shape="-73.53,-1238.01 -77.86,-1240.92 -84.52,-1245.22 -93.48,-1250.37 -104.69,-1255.81"/>
    </edge>
    <edge id=":KAW_junc_1" function="internal">
        <lane id=":KAW_junc_1_0" index="0" allow="private passenger taxi motorcycle" speed="13.89" length="35.94" shape="-71.82,-1241.34 -104.69,-1255.81"/>
        <lane id=":KAW_junc_1_1" index="1" allow="private passenger taxi motorcycle" speed="13.89" length="35.94" shape="-70.52,-1244.27 -103.40,-1258.74"/>
        <lane id=":KAW_junc_1_2" index="2" allow="private passenger taxi motorcycle" speed="13.89" length="35.94" shape="-69.22,-1247.19 -102.12,-1261.67"/>
        <lane id=":KAW_junc_1_3" index="3" allow="private passenger taxi motorcycle" speed="13.89" length="35.94" shape="-67.92,-1250.12 -100.84,-1264.60"/>
    </edge>
    <edge id=":KA_intersection_0" function="internal">
        <lane id=":KA_intersection_0_0" index="0" allow="private passenger taxi motorcycle" speed="5.82" length="9.14" shape="0.97,-1208.80 -1.60,-1209.56 -3.46,-1209.19 -4.62,-1207.69 -5.08,-1205.06"/>
        <lane id=":KA_intersection_0_1" index="1" allow="private passenger taxi motorcycle" speed="6.72" length="12.63" shape="0.97,-1208.80 -2.98,-1210.11 -5.84,-1209.94 -7.60,-1208.29 -8.28,-1205.17"/>
    </edge>
    <edge id=":KA_intersection_2" function="internal">
        <lane id=":KA_intersection_2_0" index="0" allow="private passenger taxi motorcycle" speed="13.89" length="66.18" shape="0.97,-1208.80 -59.38,-1235.82"/>
        <lane id=":KA_intersection_2_1" index="1" allow="private passenger taxi motorcycle" speed="13.89" length="66.18" shape="2.31,-1211.70 -58.08,-1238.75"/>
        <lane id=":KA_intersection_2_2" index="2" allow="private passenger taxi motorcycle" speed="13.89" length="66.18" shape="3.66,-1214.60 -56.79,-1241.67"/>
    </edge>
    <edge id=":KA_intersection_5" function="internal">
        <lane id=":KA_intersection_5_0" index="0" allow="private passenger taxi motorcycle" speed="13.89" length="70.75" shape="3.66,-1214.60 -17.09,-1225.76 -31.79,-1237.53 -40.42,-1249.92 -42.98,-1262.93"/>
    </edge>
    <edge id=":KA_intersection_6" function="internal">
        <lane id=":KA_intersection_6_0" index="0" allow="private passenger taxi motorcycle" speed="13.89" length="66.28" shape="5.01,-1217.51 -55.49,-1244.60"/>
    </edge>
    <edge id=":KA_intersection_7" function="internal">
        <lane id=":KA_intersection_7_0" index="0" allow="private passenger taxi motorcycle" speed="13.89" length="67.02" shape="5.01,-1217.51 -14.91,-1228.14 -29.01,-1239.24 -37.31,-1250.80 -39.79,-1262.82"/>
    </edge>
    <edge id=":KA_intersection_8" function="internal">
        <lane id=":KA_intersection_8_0" index="0" allow="private passenger taxi motorcycle" speed="13.89" length="58.51" shape="-3.56,-1261.55 -10.85,-1254.19 -27.23,-1246.93 -45.08,-1242.01 -56.79,-1241.67"/>
        <lane id=":KA_intersection_8_1" index="1" allow="private passenger taxi motorcycle" speed="13.33" length="53.45" shape="-6.76,-1261.67 -13.34,-1254.74 -28.18,-1248.45 -44.48,-1244.49 -55.49,-1244.60"/>
    </edge>
    <edge id=":KA_intersection_10" function="internal">
        <lane id=":KA_intersection_10_0" index="0" allow="private passenger taxi motorcycle" speed="13.89" length="66.47" shape="-49.03,-1259.13 11.64,-1231.79"/>
        <lane id=":KA_intersection_10_1" index="1" allow="private passenger taxi motorcycle" speed="13.89" length="66.47" shape="-50.33,-1256.21 10.29,-1228.89"/>
        <lane id=":KA_intersection_10_2" index="2" allow="private passenger taxi motorcycle" speed="13.89" length="66.47" shape="-51.63,-1253.28 8.94,-1225.98"/>
        <lane id=":KA_intersection_10_3" index="3" allow="private passenger taxi motorcycle" speed="13.89" length="66.47" shape="-52.93,-1250.36 7.60,-1223.08"/>
    </edge>
    <edge id=":KA_intersection_14" function="internal">
        <lane id=":KA_intersection_14_0" index="0" allow="private passenger taxi motorcycle" speed="13.89" length="59.94" shape="-46.28,-1207.20 -38.46,-1214.40 -21.40,-1221.32 -2.98,-1225.87 8.94,-1225.98"/>
        <lane id=":KA_intersection_14_1" index="1" allow="private passenger taxi motorcycle" speed="13.66" length="54.90" shape="-43.09,-1207.01 -35.98,-1213.78 -20.48,-1219.77 -3.62,-1223.39 7.60,-1223.08"/>
    </edge>
    <edge id=":KBT_intersection_0" function="internal">
        <lane id=":KBT_intersection_0_0" index="0" allow="private passenger taxi motorcycle" speed="5.72" length="9.20" shape="-45.02,-3.12 -47.57,-4.12 -49.42,-3.88 -50.56,-2.41 -51.01,0.28"/>
        <lane id=":KBT_intersection_0_1" index="1" allow="private passenger taxi motorcycle" speed="6.64" length="12.90" shape="-45.02,-3.12 -48.95,-4.78 -51.79,-4.78 -53.55,-3.12 -54.21,0.19"/>
    </edge>
    <edge id=":KBT_intersection_2" function="internal">
        <lane id=":KBT_intersection_2_0" index="0" allow="private passenger taxi motorcycle" speed="13.89" length="34.69" shape="-45.02,-3.12 -55.73,-9.69 -63.31,-15.77 -67.74,-21.37 -69.04,-26.47"/>
        <lane id=":KBT_intersection_2_1" index="1" allow="private passenger taxi motorcycle" speed="13.89" length="32.55" shape="-45.02,-3.12 -54.36,-9.03 -60.95,-14.86 -64.78,-20.62 -65.85,-26.30"/>
    </edge>
    <edge id=":KBT_intersection_4" function="internal">
        <lane id=":KBT_intersection_4_0" index="0" allow="private passenger taxi motorcycle" speed="12.16" length="22.00" shape="-51.06,-25.48 -50.83,-18.72 -49.48,-13.22 -47.00,-8.98 -43.39,-6.02"/>
    </edge>
    <edge id=":KBT_intersection_5" function="internal">
        <lane id=":KBT_intersection_5_0" index="0" allow="private passenger taxi motorcycle" speed="13.89" length="25.85" shape="-51.06,-25.48 -51.01,0.28"/>
        <lane id=":KBT_intersection_5_1" index="1" allow="private passenger taxi motorcycle" speed="13.89" length="25.85" shape="-54.25,-25.64 -54.21,0.19"/>
        <lane id=":KBT_intersection_5_2" index="2" allow="private passenger taxi motorcycle" speed="13.89" length="25.85" shape="-57.45,-25.78 -57.41,0.10"/>
        <lane id=":KBT_intersection_5_3" index="3" allow="private passenger taxi motorcycle" speed="13.89" length="25.85" shape="-60.64,-25.93 -60.61,0.01"/>
    </edge>
    <edge id=":KBT_intersection_9" function="internal">
        <lane id=":KBT_intersection_9_0" index="0" allow="private passenger taxi motorcycle" speed="6.42" length="10.87" shape="-84.88,-20.75 -82.32,-20.30 -80.43,-21.19 -79.20,-23.42 -78.63,-27.00"/>
        <lane id=":KBT_intersection_9_1" index="1" allow="private passenger taxi motorcycle" speed="7.20" length="14.02" shape="-84.88,-20.75 -80.95,-19.83 -78.06,-20.53 -76.22,-22.87 -75.44,-26.83"/>
    </edge>
    <edge id=":KBT_intersection_11" function="internal">
        <lane id=":KBT_intersection_11_0" index="0" allow="private passenger taxi motorcycle" speed="13.89" length="40.88" shape="-84.88,-20.75 -69.98,-14.46 -59.37,-8.86 -53.04,-3.94 -51.01,0.28"/>
        <lane id=":KBT_intersection_11_1" index="1" allow="private passenger taxi motorcycle" speed="13.89" length="38.38" shape="-84.88,-20.75 -71.37,-14.93 -61.75,-9.50 -56.03,-4.46 -54.21,0.19"/>
        <lane id=":KBT_intersection_11_2" index="2" allow="private passenger taxi motorcycle" speed="13.89" length="34.62" shape="-86.04,-17.77 -73.44,-12.44 -64.47,-7.69 -59.13,-3.51 -57.41,0.10"/>
        <lane id=":KBT_intersection_11_3" index="3" allow="private passenger taxi motorcycle" speed="13.68" length="32.13" shape="-86.04,-17.77 -74.83,-12.91 -66.85,-8.33 -62.11,-4.03 -60.61,0.01"/>
    </edge>
    <edge id=":KBT_intersection_15" function="internal">
        <lane id=":KBT_intersection_15_0" index="0" allow="private passenger taxi motorcycle" speed="13.89" length="26.36" shape="-79.86,-0.55 -78.63,-27.00"/>
        <lane id=":KBT_intersection_15_1" index="1" allow="private passenger taxi motorcycle" speed="13.89" length="26.36" shape="-76.66,-0.46 -75.44,-26.83"/>
        <lane id=":KBT_intersection_15_2" index="2" allow="private passenger taxi motorcycle" speed="13.89" length="26.36" shape="-73.46,-0.36 -72.24,-26.65"/>
        <lane id=":KBT_intersection_15_3" index="3" allow="private passenger taxi motorcycle" speed="13.89" length="26.36" shape="-70.26,-0.27 -69.04,-26.47"/>
    </edge>
    <edge id=":KBT_intersection_19" function="internal">
        <lane id=":KBT_intersection_19_0" index="0" allow="private passenger taxi motorcycle" speed="6.36" length="9.39" shape="-70.26,-0.27 -66.91,-5.00 -63.65,-6.51"/>
    </edge>
    <edge id=":KBT_intersection_20" function="internal">
        <lane id=":KBT_intersection_20_0" index="0" allow="private passenger taxi motorcycle" speed="13.89" length="26.15" shape="-67.06,-0.18 -65.85,-26.30"/>
    </edge>
    <edge id=":KBT_intersection_21" function="internal">
        <lane id=":KBT_intersection_21_0" index="0" allow="private passenger taxi motorcycle" speed="10.00" length="30.86" shape="-67.06,-0.18 -64.78,-7.73 -59.44,-10.65 -52.00,-9.80 -43.39,-6.02"/>
    </edge>
    <edge id=":KBT_intersection_22" function="internal">
        <lane id=":KBT_intersection_22_0" index="0" allow="private passenger taxi motorcycle" speed="4.74" length="4.72" shape="-67.06,-0.18 -65.38,-2.55 -63.74,-3.31"/>
    </edge>
    <edge id=":KBT_intersection_23" function="internal">
        <lane id=":KBT_intersection_23_0" index="0" allow="private passenger taxi motorcycle" speed="6.36" length="9.39" shape="-63.65,-6.51 -60.48,-4.81 -57.41,0.10"/>
    </edge>
    <edge id=":KBT_intersection_24" function="internal">
        <lane id=":KBT_intersection_24_0" index="0" allow="private passenger taxi motorcycle" speed="4.74" length="4.72" shape="-63.74,-3.31 -62.15,-2.46 -60.61,0.01"/>
    </edge>
    <edge id=":KFU_intersection_0" function="internal">
        <lane id=":KFU_intersection_0_0" index="0" allow="private passenger taxi motorcycle" speed="5.83" length="8.84" shape="-35.55,-246.17 -37.95,-246.76 -39.71,-246.29 -40.84,-244.76 -41.33,-242.17"/>
    </edge>
    <edge id=":KFU_intersection_1" function="internal">
        <lane id=":KFU_intersection_1_0" index="0" allow="private passenger taxi motorcycle" speed="13.89" length="33.73" shape="-35.55,-246.17 -44.89,-250.97 -51.51,-256.53 -55.40,-262.84 -56.55,-269.92"/>
        <lane id=":KFU_intersection_1_1" index="1" allow="private passenger taxi motorcycle" speed="13.73" length="31.65" shape="-35.55,-246.17 -43.51,-250.47 -49.13,-255.85 -52.41,-262.30 -53.35,-269.83"/>
    </edge>
    <edge id=":KFU_intersection_3" function="internal">
        <lane id=":KFU_intersection_3_0" index="0" allow="private passenger taxi motorcycle" speed="9.77" length="25.07" shape="-35.07,-264.56 -43.57,-263.40 -50.43,-263.54 -54.99,-265.52 -56.55,-269.92"/>
        <lane id=":KFU_intersection_3_1" index="1" allow="private passenger taxi motorcycle" speed="9.10" length="21.58" shape="-35.07,-264.56 -43.16,-263.65 -48.90,-264.22 -52.30,-266.28 -53.35,-269.83"/>
    </edge>
    <edge id=":KFU_intersection_5" function="internal">
        <lane id=":KFU_intersection_5_0" index="0" allow="private passenger taxi motorcycle" speed="8.07" length="15.22" shape="-40.74,-269.47 -40.47,-264.34 -39.25,-260.71 -37.07,-258.58 -33.93,-257.96"/>
    </edge>
    <edge id=":KFU_intersection_6" function="internal">
        <lane id=":KFU_intersection_6_0" index="0" allow="private passenger taxi motorcycle" speed="9.95" length="20.56" shape="-40.74,-269.47 -40.60,-261.89 -39.54,-256.32 -37.57,-252.78 -34.69,-251.27"/>
    </edge>
    <edge id=":KFU_intersection_7" function="internal">
        <lane id=":KFU_intersection_7_0" index="0" allow="private passenger taxi motorcycle" speed="13.89" length="27.23" shape="-40.74,-269.47 -41.33,-242.17"/>
        <lane id=":KFU_intersection_7_1" index="1" allow="private passenger taxi motorcycle" speed="13.89" length="27.23" shape="-43.94,-269.56 -44.53,-242.34"/>
        <lane id=":KFU_intersection_7_2" index="2" allow="private passenger taxi motorcycle" speed="13.89" length="27.23" shape="-47.14,-269.65 -47.72,-242.51"/>
    </edge>
    <edge id=":KFU_intersection_10" function="internal">
        <lane id=":KFU_intersection_10_0" index="0" allow="private passenger taxi motorcycle" speed="7.50" length="14.00" shape="-72.27,-259.53 -69.71,-259.75 -67.84,-261.60 -66.66,-265.07 -66.15,-270.18"/>
        <lane id=":KFU_intersection_10_1" index="1" allow="private passenger taxi motorcycle" speed="8.13" length="16.63" shape="-72.27,-259.53 -68.32,-259.50 -65.45,-261.25 -63.66,-264.78 -62.95,-270.09"/>
    </edge>
    <edge id=":KFU_intersection_12" function="internal">
        <lane id=":KFU_intersection_12_0" index="0" allow="private passenger taxi motorcycle" speed="13.89" length="38.41" shape="-72.27,-259.53 -62.85,-258.41 -51.30,-257.92 -40.65,-257.85 -33.93,-257.96"/>
    </edge>
    <edge id=":KFU_intersection_13" function="internal">
        <lane id=":KFU_intersection_13_0" index="0" allow="private passenger taxi motorcycle" speed="13.89" length="38.56" shape="-72.91,-256.39 -34.69,-251.27"/>
    </edge>
    <edge id=":KFU_intersection_14" function="internal">
        <lane id=":KFU_intersection_14_0" index="0" speed="12.18" length="30.39" shape="-72.91,-256.39 -61.71,-253.55 -53.78,-250.29 -49.12,-246.61 -47.72,-242.51"/>
    </edge>
    <edge id=":KFU_intersection_15" function="internal">
        <lane id=":KFU_intersection_15_0" index="0" allow="private passenger taxi motorcycle" speed="13.89" length="26.77" shape="-66.66,-243.54 -66.15,-270.18"/>
        <lane id=":KFU_intersection_15_1" index="1" allow="private passenger taxi motorcycle" speed="13.89" length="26.77" shape="-63.46,-243.37 -62.95,-270.09"/>
        <lane id=":KFU_intersection_15_2" index="2" allow="private passenger taxi motorcycle" speed="13.89" length="26.77" shape="-60.27,-243.20 -59.75,-270.00"/>
        <lane id=":KFU_intersection_15_3" index="3" allow="private passenger taxi motorcycle" speed="13.89" length="26.77" shape="-57.07,-243.02 -56.55,-269.92"/>
    </edge>
    <edge id=":KFU_intersection_19" function="internal">
        <lane id=":KFU_intersection_19_0" index="0" allow="private passenger taxi motorcycle" speed="11.91" length="30.46" shape="-57.07,-243.02 -55.33,-249.27 -50.90,-253.84 -43.76,-256.74 -33.93,-257.96"/>
    </edge>
    <edge id=":KFU_intersection_20" function="internal">
        <lane id=":KFU_intersection_20_0" index="0" allow="private passenger taxi motorcycle" speed="13.89" length="26.98" shape="-53.88,-242.85 -53.35,-269.83"/>
    </edge>
    <edge id=":KFU_intersection_21" function="internal">
        <lane id=":KFU_intersection_21_0" index="0" allow="private passenger taxi motorcycle" speed="9.90" length="23.90" shape="-53.88,-242.85 -52.45,-247.58 -48.77,-250.56 -42.85,-251.79 -34.69,-251.27"/>
    </edge>
    <edge id=":KFU_intersection_22" function="internal">
        <lane id=":KFU_intersection_22_0" index="0" allow="private passenger taxi motorcycle" speed="4.65" length="9.01" shape="-53.88,-242.85 -52.21,-245.07 -50.63,-245.76 -49.13,-244.91 -47.72,-242.51"/>
    </edge>
    <edge id=":KTD_junc_0" function="internal">
        <lane id=":KTD_junc_0_0" index="0" allow="private passenger motorcycle" speed="6.53" length="8.91" shape="-46.19,24.27 -48.61,24.57 -50.38,25.56 -51.49,27.24 -51.94,29.62"/>
        <lane id=":KTD_junc_0_1" index="1" allow="private passenger motorcycle" speed="7.35" length="11.57" shape="-46.19,24.27 -50.01,24.54 -52.78,25.49 -54.49,27.14 -55.14,29.48"/>
        <lane id=":KTD_junc_0_2" index="2" allow="private passenger motorcycle" speed="8.12" length="14.38" shape="-46.19,24.27 -51.41,24.51 -55.18,25.43 -57.49,27.04 -58.33,29.34"/>
    </edge>
    <edge id=":KTD_junc_3" function="internal">
        <lane id=":KTD_junc_3_0" index="0" allow="private passenger taxi motorcycle" speed="13.89" length="10.90" shape="-51.54,18.66 -51.94,29.62"/>
        <lane id=":KTD_junc_3_1" index="1" allow="private passenger taxi motorcycle" speed="13.89" length="10.90" shape="-54.74,18.56 -55.14,29.48"/>
        <lane id=":KTD_junc_3_2" index="2" allow="private passenger taxi motorcycle" speed="13.89" length="10.90" shape="-57.94,18.47 -58.33,29.34"/>
        <lane id=":KTD_junc_3_3" index="3" allow="private passenger taxi motorcycle" speed="13.89" length="10.90" shape="-61.14,18.38 -61.53,29.20"/>
    </edge>
    <edge id=":TD0_TD1_junc_connector_0" function="internal">
        <lane id=":TD0_TD1_junc_connector_0_0" index="0" allow="private passenger motorcycle" speed="13.89" length="10.62" shape="8.85,25.69 -1.75,25.11"/>
    </edge>
    <edge id=":TD0_TD1_junc_connector_1" function="internal">
        <lane id=":TD0_TD1_junc_connector_1_0" index="0" allow="private passenger taxi motorcycle" speed="13.89" length="10.73" shape="8.85,25.69 5.86,25.33 3.81,24.43 1.88,23.09 -0.76,21.41"/>
    </edge>
    <edge id=":TD0_TD1_junc_connector_2" function="internal">
        <lane id=":TD0_TD1_junc_connector_2_0" index="0" allow="private passenger taxi motorcycle" speed="13.89" length="9.11" shape="0.74,18.71 3.03,20.17 4.62,21.27 6.31,21.98 8.92,22.27"/>
    </edge>

    <edge id="ABE_dest" from="KA_intersection" to="J26" priority="-1" spreadType="center" shape="-17.48,-1240.01 221.18,-1129.25">
        <lane id="ABE_dest_0" index="0" allow="private passenger taxi motorcycle" speed="13.89" length="233.24" shape="11.64,-1231.79 223.20,-1133.60"/>
        <lane id="ABE_dest_1" index="1" allow="private passenger taxi motorcycle" speed="13.89" length="233.24" shape="10.29,-1228.89 221.85,-1130.70"/>
        <lane id="ABE_dest_2" index="2" allow="private passenger taxi motorcycle" speed="13.89" length="233.24" shape="8.94,-1225.98 220.51,-1127.80"/>
        <lane id="ABE_dest_3" index="3" allow="private passenger taxi motorcycle" speed="13.89" length="233.24" shape="7.60,-1223.08 219.16,-1124.90"/>
    </edge>
    <edge id="ABE_source" from="J21" to="KA_intersection" priority="-1" spreadType="center" shape="214.76,-1116.62 -29.98,-1228.18">
        <lane id="ABE_source_0" index="0" allow="private passenger taxi motorcycle" speed="13.89" length="232.74" shape="212.77,-1112.25 0.97,-1208.80"/>
        <lane id="ABE_source_1" index="1" allow="private passenger taxi motorcycle" speed="13.89" length="232.74" shape="214.10,-1115.16 2.31,-1211.70"/>
        <lane id="ABE_source_2" index="2" allow="private passenger taxi motorcycle" speed="13.89" length="232.74" shape="215.42,-1118.08 3.66,-1214.60"/>
        <lane id="ABE_source_3" index="3" allow="private passenger taxi motorcycle" speed="13.89" length="232.74" shape="216.75,-1120.99 5.01,-1217.51"/>
    </edge>
    <edge id="ABW_dest" from="KAW_junc" to="J32" priority="-1" spreadType="center" shape="-82.41,-1251.30 -281.55,-1338.43">
        <lane id="ABW_dest_0" index="0" allow="private passenger taxi motorcycle" speed="13.89" length="195.15" shape="-104.69,-1255.81 -283.47,-1334.03"/>
        <lane id="ABW_dest_1" index="1" allow="private passenger taxi motorcycle" speed="13.89" length="195.15" shape="-103.40,-1258.74 -282.19,-1336.96"/>
        <lane id="ABW_dest_2" index="2" allow="private passenger taxi motorcycle" speed="13.89" length="195.15" shape="-102.12,-1261.67 -280.91,-1339.90"/>
        <lane id="ABW_dest_3" index="3" allow="private passenger taxi motorcycle" speed="13.89" length="195.15" shape="-100.84,-1264.60 -279.63,-1342.83"/>
    </edge>
    <edge id="ABW_source" from="J25" to="KA_intersection" priority="-1" spreadType="center" shape="-275.07,-1353.25 -17.37,-1239.97">
        <lane id="ABW_source_0" index="0" allow="private passenger taxi motorcycle" speed="13.89" length="244.78" shape="-273.14,-1357.64 -49.03,-1259.13"/>
        <lane id="ABW_source_1" index="1" allow="private passenger taxi motorcycle" speed="13.89" length="244.78" shape="-274.43,-1354.71 -50.33,-1256.21"/>
        <lane id="ABW_source_2" index="2" allow="private passenger taxi motorcycle" speed="13.89" length="244.78" shape="-275.71,-1351.79 -51.63,-1253.28"/>
        <lane id="ABW_source_3" index="3" allow="private passenger taxi motorcycle" speed="13.89" length="244.78" shape="-277.00,-1348.86 -52.93,-1250.36"/>
    </edge>
    <edge id="BG_source" from="BG_source_junc" to="KBT_intersection" priority="-1" spreadType="center" shape="-223.78,-73.05 -80.69,-17.40">
        <lane id="BG_source_0" index="0" allow="private passenger taxi motorcycle" speed="13.89" length="148.41" shape="-223.20,-74.54 -84.88,-20.75"/>
        <lane id="BG_source_1" index="1" allow="private passenger taxi motorcycle" speed="13.89" length="148.41" shape="-224.36,-71.56 -86.04,-17.77"/>
    </edge>
    <edge id="FD_source" from="J1" to="KFU_intersection" priority="-1" spreadType="center" shape="-324.10,-309.61 -52.29,-253.79">
        <lane id="FD_source_0" index="0" speed="13.89" length="256.76" shape="-323.78,-311.18 -72.27,-259.53"/>
        <lane id="FD_source_1" index="1" speed="13.89" length="256.76" shape="-324.42,-308.04 -72.91,-256.39"/>
    </edge>
    <edge id="KAN_int" from="J14" to="KA_intersection" priority="-1" spreadType="center" shape="-45.62,-1196.44 -42.10,-1236.66">
        <lane id="KAN_int_0" index="0" allow="private passenger taxi motorcycle" speed="13.89" length="0.20" shape="-46.30,-1207.01 -46.28,-1207.20"/>
        <lane id="KAN_int_1" index="1" allow="private passenger taxi motorcycle" speed="13.89" length="0.20" shape="-43.11,-1206.81 -43.09,-1207.01"/>
    </edge>
    <edge id="KAW_int" from="J14" to="KAW_junc" priority="-1" shape="-45.62,-1196.44 -47.45,-1204.64 -48.86,-1209.55 -50.39,-1215.26 -52.16,-1220.17 -55.62,-1224.88 -59.96,-1229.78 -64.09,-1233.54 -68.98,-1236.99 -73.56,-1239.93 -78.65,-1243.06 -84.67,-1246.56">
        <lane id="KAW_int_0" index="0" allow="private passenger taxi motorcycle" speed="13.89" length="39.98" shape="-49.94,-1207.51 -50.40,-1209.12 -51.92,-1214.78 -53.59,-1219.41 -56.87,-1223.87 -61.10,-1228.65 -65.09,-1232.29 -69.87,-1235.66 -73.53,-1238.01"/>
    </edge>
    <edge id="KA_int" from="KA_intersection" to="KAW_junc" priority="-1" spreadType="center" shape="-29.89,-1227.98 -82.41,-1251.30">
        <lane id="KA_int_0" index="0" allow="private passenger taxi motorcycle" speed="13.89" length="13.60" shape="-59.38,-1235.82 -71.82,-1241.34"/>
        <lane id="KA_int_1" index="1" allow="private passenger taxi motorcycle" speed="13.89" length="13.60" shape="-58.08,-1238.75 -70.52,-1244.27"/>
        <lane id="KA_int_2" index="2" allow="private passenger taxi motorcycle" speed="13.89" length="13.60" shape="-56.79,-1241.67 -69.22,-1247.19"/>
        <lane id="KA_int_3" index="3" allow="private passenger taxi motorcycle" speed="13.89" length="13.60" shape="-55.49,-1244.60 -67.92,-1250.12"/>
    </edge>
    <edge id="KA_nb_source" from="J29" to="KA_intersection" priority="-1" spreadType="center" shape="0.09,-1429.81 -6.33,-1223.98">
        <lane id="KA_nb_source_0" index="0" allow="private passenger taxi motorcycle" speed="13.89" length="168.28" shape="1.69,-1429.76 -3.56,-1261.55"/>
        <lane id="KA_nb_source_1" index="1" allow="private passenger taxi motorcycle" speed="13.89" length="168.28" shape="-1.51,-1429.86 -6.76,-1261.67"/>
    </edge>
    <edge id="KA_sb_dest" from="KA_intersection" to="J30" priority="-1" spreadType="center" shape="-42.31,-1236.30 -35.53,-1431.17">
        <lane id="KA_sb_dest_0" index="0" allow="private passenger taxi motorcycle" speed="13.89" length="168.40" shape="-42.98,-1262.93 -37.13,-1431.23"/>
        <lane id="KA_sb_dest_1" index="1" allow="private passenger taxi motorcycle" speed="13.89" length="168.40" shape="-39.79,-1262.82 -33.93,-1431.11"/>
    </edge>
    <edge id="KBT_KFU_nb_3_int" from="KFU_intersection" to="J17" priority="-1" spreadType="center" shape="-44.40,-244.65 -53.46,-78.03">
        <lane id="KBT_KFU_nb_3_int_0" index="0" speed="13.89" length="160.56" shape="-41.33,-242.17 -50.05,-81.85"/>
        <lane id="KBT_KFU_nb_3_int_1" index="1" speed="13.89" length="160.56" shape="-44.53,-242.34 -53.24,-82.02"/>
        <lane id="KBT_KFU_nb_3_int_2" index="2" speed="13.89" length="160.56" shape="-47.72,-242.51 -56.44,-82.20"/>
    </edge>
    <edge id="KBT_KFU_nb_5_int" from="J17" to="KBT_intersection" priority="-1" spreadType="center" shape="-53.46,-78.03 -55.85,-25.71">
        <lane id="KBT_KFU_nb_5_int_0" index="0" allow="private passenger taxi motorcycle" speed="13.89" length="48.38" shape="-48.85,-73.82 -51.06,-25.48"/>