<?xml version="1.0" encoding="UTF-8"?>

<!-- generated on 2025-02-05 08:17:28.124274 by randomTrips.py v1_20_0+0002-343658e7c64
<configuration>
    <net-file value="osm.net.xml"/>
    <route-file value="C:\Documents\2S2425\199\osm.rou.xml"/>
</configuration>
-->

<!-- generated on 2025-02-05 08:17:27 by Eclipse SUMO duarouter Version 1.20.0
<configuration xmlns:xsi="http://www.w3.org/2001/XMLSchema-instance" xsi:noNamespaceSchemaLocation="http://sumo.dlr.de/xsd/duarouterConfiguration.xsd">

    <input>
        <net-file value="osm.net.xml"/>
        <route-files value="trips.trips.xml"/>
    </input>

    <output>
        <output-file value="C:\Documents\2S2425\199\osm.rou.xml"/>
        <alternatives-output value="NUL"/>
    </output>

    <time>
        <begin value="0"/>
        <end value="3600"/>
    </time>

    <report>
        <no-warnings value="true"/>
        <ignore-errors value="true"/>
        <no-step-log value="true"/>
    </report>

</configuration>
-->

<routes xmlns:xsi="http://www.w3.org/2001/XMLSchema-instance" xsi:noNamespaceSchemaLocation="http://sumo.dlr.de/xsd/routes_file.xsd">
    <vehicle id="3" depart="3.00">
        <route edges="UR0_source KFD_KXV_sb_5_int KFD_KXV_sb_2_int KXV_A_int KAN_int"/>
    </vehicle>
    <vehicle id="4" depart="4.00">
        <route edges="KBT_KFU_sb_int KFD_KXV_sb_5_int KFD_KXV_sb_2_int KXV_A_int KAN_int ABE_dest"/>
    </vehicle>
    <vehicle id="6" depart="6.00">
        <route edges="ABE_source KA_int"/>
    </vehicle>
    <vehicle id="7" depart="7.00">
        <route edges="KU_A_nb_2_int KFD_A_nb_3_int KBT_KFU_nb_3_int KBT_KFU_nb_5_int KTD_int KN_dest"/>
    </vehicle>
    <vehicle id="9" depart="9.00">
        <route edges="TD1_source_int KBT_KFU_sb_int KFD_KXV_sb_5_int KFD_KXV_sb_2_int KXV_A_int KAN_int ABE_dest"/>
    </vehicle>
    <vehicle id="10" depart="10.00">
        <route edges="TD1_source_int KBT_KFU_sb_int KFD_KXV_sb_5_int KFD_KXV_sb_2_int KXV_A_int"/>
    </vehicle>
    <vehicle id="13" depart="13.00">
        <route edges="BG_source KBT_KFU_sb_int KFD_KXV_sb_5_int KFD_KXV_sb_2_int KXV_A_int KAN_int"/>
    </vehicle>
    <vehicle id="14" depart="14.00">
        <route edges="TD_source TD1_source_int KTD_int"/>
    </vehicle>
    <vehicle id="16" depart="16.00">
        <route edges="KFD_KXV_sb_5_int KFD_KXV_sb_2_int XV_dest"/>
    </vehicle>
    <vehicle id="17" depart="17.00">
        <route edges="KBT_KFU_nb_5_int KTD_int KN_dest"/>
    </vehicle>
    <vehicle id="18" depart="18.00">
        <route edges="TD1_source_int KTD_int"/>
    </vehicle>
    <vehicle id="19" depart="19.00">
        <route edges="TD_source TD0_int KN_dest"/>
    </vehicle>
    <vehicle id="20" depart="20.00">
        <route edges="KXV_A_int KAW_int ABW_dest"/>
    </vehicle>
    <vehicle id="23" depart="23.00">
        <route edges="BG_source KBT_KFU_sb_int KBT_KFU_nb_3_int"/>
    </vehicle>
    <vehicle id="27" depart="27.00">
        <route edges="KU_A_nb_2_int KFD_A_nb_3_int KBT_KFU_nb_3_int KBT_KFU_nb_5_int KTD_int"/>
    </vehicle>
    <vehicle id="31" depart="31.00">
        <route edges="KFD_KXV_sb_5_int KFD_KXV_sb_2_int KXV_A_int"/>
    </vehicle>
    <vehicle id="32" depart="32.00">
        <route edges="TD_source TD1_source_int KBT_KFU_sb_int KBT_KFU_nb_3_int KBT_KFU_nb_5_int TD1_dest_int"/>
    </vehicle>
    <vehicle id="36" depart="36.00">
        <route edges="TD_source TD1_source_int KBT_KFU_sb_int KBT_KFU_nb_3_int KBT_KFU_nb_5_int"/>
    </vehicle>
    <vehicle id="37" depart="37.00">
        <route edges="KU_A_nb_2_int KFD_A_nb_3_int"/>
    </vehicle>
    <vehicle id="38" depart="38.00">
        <route edges="UR0_source KFD_KXV_sb_5_int"/>
    </vehicle>
    <vehicle id="40" depart="40.00">
        <route edges="KN_source KBT_KFU_sb_int KBT_KFU_nb_3_int"/>
    </vehicle>
    <vehicle id="41" depart="41.00">
        <route edges="KN_source KBT_KFU_sb_int UR0_dest"/>
    </vehicle>
    <vehicle id="44" depart="44.00">
        <route edges="BG_source KBT_KFU_sb_int KFD_KXV_sb_5_int KFD_KXV_sb_2_int KXV_A_int KAW_int ABW_dest"/>
    </vehicle>
    <vehicle id="53" depart="53.00">
        <route edges="BG_source KBT_KFU_sb_int KFD_KXV_sb_5_int KFD_KXV_sb_2_int"/>
    </vehicle>
    <vehicle id="54" depart="54.00">
        <route edges="KFD_A_nb_3_int UR1_dest"/>
    </vehicle>
    <vehicle id="55" depart="55.00">
        <route edges="TD_source TD1_source_int KBT_KFU_sb_int KBT_KFU_nb_3_int"/>
    </vehicle>
    <vehicle id="57" depart="57.00">
        <route edges="UR0_source KBT_KFU_nb_3_int KBT_KFU_nb_5_int TD1_dest_int TD_dest"/>
    </vehicle>
    <vehicle id="62" depart="62.00">
        <route edges="ABE_source KU_A_nb_2_int KFD_A_nb_3_int KBT_KFU_nb_3_int KBT_KFU_nb_5_int"/>
    </vehicle>
    <vehicle id="63" depart="63.00">
        <route edges="ABE_source KU_A_nb_2_int KFD_A_nb_3_int UR1_dest"/>
    </vehicle>
    <vehicle id="64" depart="64.00">
        <route edges="TD_source TD1_source_int"/>
    </vehicle>
    <vehicle id="65" depart="65.00">
        <route edges="KA_nb_source KA_int ABW_dest"/>
    </vehicle>
    <vehicle id="66" depart="66.00">
        <route edges="TD_source TD1_source_int KBT_KFU_sb_int UR1_dest"/>
    </vehicle>
    <vehicle id="67" depart="67.00">
        <route edges="BG_source KBT_KFU_sb_int KFD_KXV_sb_5_int"/>
    </vehicle>
    <vehicle id="70" depart="70.00">
        <route edges="KFD_A_nb_3_int KBT_KFU_nb_3_int KBT_KFU_nb_5_int KTD_int KN_dest"/>
    </vehicle>
    <vehicle id="76" depart="76.00">
        <route edges="KBT_KFU_sb_int KFD_KXV_sb_5_int KHW_dest"/>
    </vehicle>
    <vehicle id="78" depart="78.00">
        <route edges="KBT_KFU_nb_3_int KBT_KFU_nb_5_int KTD_int"/>
    </vehicle>
    <vehicle id="82" depart="82.00">
        <route edges="TD_source TD1_source_int KBT_KFU_sb_int KFD_KXV_sb_5_int KFD_KXV_sb_2_int KXV_A_int KAW_int ABW_dest"/>
    </vehicle>
    <vehicle id="84" depart="84.00">
        <route edges="KAW_int"/>
    </vehicle>
    <vehicle id="86" depart="86.00">
        <route edges="KFD_A_nb_3_int KBT_KFU_nb_3_int KBT_KFU_nb_5_int TD1_dest_int"/>
    </vehicle>
    <vehicle id="88" depart="88.00">
        <route edges="BG_source KBT_KFU_sb_int KFD_KXV_sb_5_int KFD_KXV_sb_2_int"/>
    </vehicle>
    <vehicle id="89" depart="89.00">
        <route edges="KBT_KFU_sb_int KFD_KXV_sb_5_int"/>
    </vehicle>
    <vehicle id="91" depart="91.00">
        <route edges="XV_source KXV_A_int KAN_int"/>
    </vehicle>
    <vehicle id="92" depart="92.00">
        <route edges="KBT_KFU_sb_int"/>
    </vehicle>
    <vehicle id="95" depart="95.00">
        <route edges="KBT_KFU_sb_int KBT_KFU_nb_3_int"/>
    </vehicle>
    <vehicle id="97" depart="97.00">
        <route edges="KFD_A_nb_3_int KBT_KFU_nb_3_int KBT_KFU_nb_5_int TD1_dest_int TD_dest"/>
    </vehicle>
    <vehicle id="98" depart="98.00">
        <route edges="KFD_KXV_sb_5_int KFD_KXV_sb_2_int KXV_A_int KAW_int ABW_dest"/>
    </vehicle>
    <vehicle id="101" depart="101.00">
        <route edges="TD_source TD1_source_int KBT_KFU_sb_int KFD_KXV_sb_5_int KFD_KXV_sb_2_int KXV_A_int KAW_int"/>
    </vehicle>
    <vehicle id="103" depart="103.00">
        <route edges="KBT_KFU_sb_int KFD_KXV_sb_5_int KFD_KXV_sb_2_int KXV_A_int KAW_int ABW_dest"/>
    </vehicle>
    <vehicle id="107" depart="107.00">
        <route edges="UR1_source KFD_KXV_sb_5_int KFD_KXV_sb_2_int XV_dest"/>
    </vehicle>
    <vehicle id="109" depart="109.00">
        <route edges="FD_source KBT_KFU_nb_3_int KBT_KFU_nb_5_int"/>
    </vehicle>
    <vehicle id="114" depart="114.00">
        <route edges="FD_source KFD_KXV_sb_5_int KFD_KXV_sb_2_int XV_dest"/>
    </vehicle>
    <vehicle id="116" depart="116.00">
        <route edges="KN_source KBT_KFU_sb_int KFD_KXV_sb_5_int KFD_KXV_sb_2_int KXV_A_int"/>
    </vehicle>
    <vehicle id="119" depart="119.00">
        <route edges="KN_source KTD_int"/>
    </vehicle>
    <vehicle id="120" depart="120.00">
        <route edges="KBT_KFU_sb_int KBT_KFU_nb_3_int KBT_KFU_nb_5_int KTD_int"/>
    </vehicle>
    <vehicle id="124" depart="124.00">
        <route edges="KU_A_nb_2_int KFD_A_nb_3_int KBT_KFU_nb_3_int KBT_KFU_nb_5_int"/>
    </vehicle>
    <vehicle id="132" depart="132.00">
        <route edges="TD1_source_int KBT_KFU_sb_int KFD_KXV_sb_5_int KFD_KXV_sb_2_int KXV_A_int"/>
    </vehicle>
    <vehicle id="135" depart="135.00">
        <route edges="TD1_source_int KBT_KFU_sb_int KBT_KFU_nb_3_int KBT_KFU_nb_5_int"/>
    </vehicle>
    <vehicle id="136" depart="136.00">
        <route edges="KU_A_nb_2_int KFD_A_nb_3_int UR1_dest"/>
    </vehicle>
    <vehicle id="137" depart="137.00">
        <route edges="FD_source KFD_KXV_sb_5_int KFD_KXV_sb_2_int KXV_A_int KAN_int"/>
    </vehicle>
    <vehicle id="138" depart="138.00">
        <route edges="BG_source KTD_int KN_dest"/>
    </vehicle>
    <vehicle id="143" depart="143.00">
        <route edges="TD_source TD1_source_int KBT_KFU_sb_int KFD_KXV_sb_5_int KFD_KXV_sb_2_int KXV_A_int KAN_int"/>
    </vehicle>
    <vehicle id="144" depart="144.00">
        <route edges="KBT_KFU_sb_int KBT_KFU_nb_3_int"/>
    </vehicle>
    <vehicle id="145" depart="145.00">
        <route edges="ABE_source KU_A_nb_2_int KFD_A_nb_3_int KBT_KFU_nb_3_int KBT_KFU_nb_5_int TD1_dest_int"/>
    </vehicle>
    <vehicle id="147" depart="147.00">
        <route edges="TD0_int KN_dest"/>
    </vehicle>
    <vehicle id="148" depart="148.00">
        <route edges="KBT_KFU_sb_int KFD_KXV_sb_5_int KFD_KXV_sb_2_int KXV_A_int KAN_int ABE_dest"/>
    </vehicle>
    <vehicle id="150" depart="150.00">
        <route edges="UR0_source KBT_KFU_nb_3_int KBT_KFU_nb_5_int KTD_int KN_dest"/>
    </vehicle>
    <vehicle id="151" depart="151.00">
        <route edges="TD1_source_int KTD_int KN_dest"/>
    </vehicle>
    <vehicle id="152" depart="152.00">
        <route edges="FD_source KFD_KXV_sb_5_int KFD_KXV_sb_2_int KXV_A_int KAW_int"/>
    </vehicle>
    <vehicle id="154" depart="154.00">
        <route edges="TD1_dest_int TD_dest"/>
    </vehicle>
    <vehicle id="158" depart="158.00">
        <route edges="KBT_KFU_sb_int KBT_KFU_nb_3_int KBT_KFU_nb_5_int KTD_int"/>
    </vehicle>
    <vehicle id="159" depart="159.00">
        <route edges="FD_source UR1_dest"/>
    </vehicle>
    <vehicle id="160" depart="160.00">
        <route edges="TD_source TD1_source_int KBT_KFU_sb_int KFD_KXV_sb_5_int KFD_KXV_sb_2_int XV_dest"/>
    </vehicle>
    <vehicle id="161" depart="161.00">
        <route edges="TD1_source_int KBT_KFU_sb_int UR0_dest"/>
    </vehicle>
    <vehicle id="164" depart="164.00">
        <route edges="TD1_source_int KBT_KFU_sb_int KBT_KFU_nb_3_int KBT_KFU_nb_5_int TD1_dest_int TD_dest"/>
    </vehicle>
    <vehicle id="165" depart="165.00">
        <route edges="TD1_source_int KBT_KFU_sb_int KBT_KFU_nb_3_int"/>
    </vehicle>
    <vehicle id="167" depart="167.00">
        <route edges="TD_source TD1_source_int KBT_KFU_sb_int KBT_KFU_nb_3_int KBT_KFU_nb_5_int TD1_dest_int TD_dest"/>
    </vehicle>
    <vehicle id="169" depart="169.00">
        <route edges="KFD_A_nb_3_int KBT_KFU_nb_3_int KBT_KFU_nb_5_int"/>
    </vehicle>
    <vehicle id="171" depart="171.00">
        <route edges="ABE_source KA_int"/>
    </vehicle>
    <vehicle id="172" depart="172.00">
        <route edges="KBT_KFU_nb_3_int KBT_KFU_nb_5_int TD1_dest_int TD_dest"/>
    </vehicle>
    <vehicle id="174" depart="174.00">
        <route edges="KU_A_nb_2_int KFD_A_nb_3_int"/>
    </vehicle>
    <vehicle id="176" depart="176.00">
        <route edges="UR1_source KFD_KXV_sb_5_int KFD_KXV_sb_2_int KXV_A_int KAN_int"/>
    </vehicle>
    <vehicle id="179" depart="179.00">
        <route edges="BG_source KBT_KFU_sb_int KFD_KXV_sb_5_int KFD_KXV_sb_2_int"/>
    </vehicle>
    <vehicle id="182" depart="182.00">
        <route edges="KBT_KFU_nb_5_int KTD_int KN_dest"/>
    </vehicle>
    <vehicle id="184" depart="184.00">
        <route edges="ABE_source KU_A_nb_2_int KFD_A_nb_3_int UR1_dest"/>
    </vehicle>
    <vehicle id="188" depart="188.00">
        <route edges="KU_A_nb_2_int KFD_A_nb_3_int KBT_KFU_nb_3_int KBT_KFU_nb_5_int"/>
    </vehicle>
    <vehicle id="192" depart="192.00">
        <route edges="KBT_KFU_sb_int KBT_KFU_nb_3_int KBT_KFU_nb_5_int"/>
    </vehicle>
    <vehicle id="193" depart="193.00">
        <route edges="FD_source KFD_KXV_sb_5_int KFD_KXV_sb_2_int"/>
    </vehicle>
    <vehicle id="194" depart="194.00">
        <route edges="UR1_source KFD_KXV_sb_5_int KFD_KXV_sb_2_int KXV_A_int"/>
    </vehicle>
    <vehicle id="195" depart="195.00">
        <route edges="UR0_source KBT_KFU_nb_3_int KBT_KFU_nb_5_int KTD_int"/>
    </vehicle>
    <vehicle id="197" depart="197.00">
        <route edges="ABE_source KU_A_nb_2_int KFD_A_nb_3_int KBT_KFU_nb_3_int"/>
    </vehicle>
    <vehicle id="198" depart="198.00">
        <route edges="KBT_KFU_sb_int KBT_KFU_nb_3_int KBT_KFU_nb_5_int KTD_int KN_dest"/>
    </vehicle>
    <vehicle id="201" depart="201.00">
        <route edges="KFD_A_nb_3_int UR0_dest"/>
    </vehicle>
    <vehicle id="203" depart="203.00">
        <route edges="BG_source KBT_KFU_sb_int KFD_KXV_sb_5_int KHW_dest"/>
    </vehicle>
    <vehicle id="205" depart="205.00">
        <route edges="TD1_source_int KBT_KFU_sb_int KBT_KFU_nb_3_int KBT_KFU_nb_5_int TD1_dest_int"/>
    </vehicle>
    <vehicle id="207" depart="207.00">
        <route edges="KAN_int ABE_dest"/>
    </vehicle>
    <vehicle id="209" depart="209.00">
        <route edges="TD_source TD1_source_int KBT_KFU_sb_int KFD_KXV_sb_5_int KFD_KXV_sb_2_int KXV_A_int KAW_int ABW_dest"/>
    </vehicle>
    <vehicle id="215" depart="215.00">
        <route edges="BG_source KBT_KFU_sb_int KFD_KXV_sb_5_int KFD_KXV_sb_2_int"/>
    </vehicle>
    <vehicle id="217" depart="217.00">
        <route edges="KFD_KXV_sb_2_int KXV_A_int KAW_int ABW_dest"/>
    </vehicle>
    <vehicle id="221" depart="221.00">
        <route edges="KN_source KBT_KFU_sb_int UR1_dest"/>
    </vehicle>
    <vehicle id="222" depart="222.00">
        <route edges="UR0_source KBT_KFU_nb_3_int KBT_KFU_nb_5_int KTD_int"/>
    </vehicle>
    <vehicle id="224" depart="224.00">
        <route edges="TD1_source_int KTD_int KN_dest"/>
    </vehicle>
    <vehicle id="226" depart="226.00">
        <route edges="KFD_A_nb_3_int KBT_KFU_nb_3_int"/>
    </vehicle>
    <vehicle id="232" depart="232.00">
        <route edges="KFD_KXV_sb_5_int KFD_KXV_sb_2_int KXV_A_int KAW_int"/>
    </vehicle>
    <vehicle id="234" depart="234.00">
        <route edges="KXV_A_int KAW_int ABW_dest"/>
    </vehicle>
    <vehicle id="235" depart="235.00">
        <route edges="KBT_KFU_sb_int KBT_KFU_nb_3_int KBT_KFU_nb_5_int KTD_int KN_dest"/>
    </vehicle>
    <vehicle id="237" depart="237.00">
        <route edges="KBT_KFU_sb_int UR0_dest"/>
    </vehicle>
    <vehicle id="238" depart="238.00">
        <route edges="KN_source KBT_KFU_sb_int KFD_KXV_sb_5_int KFD_KXV_sb_2_int KXV_A_int"/>
    </vehicle>
    <vehicle id="239" depart="239.00">
        <route edges="TD_source TD1_source_int KBT_KFU_sb_int KBT_KFU_nb_3_int KBT_KFU_nb_5_int TD1_dest_int"/>
    </vehicle>
    <vehicle id="241" depart="241.00">
        <route edges="KBT_KFU_nb_3_int KBT_KFU_nb_5_int TD1_dest_int"/>
    </vehicle>
    <vehicle id="242" depart="242.00">
        <route edges="TD_source TD1_source_int KBT_KFU_sb_int UR1_dest"/>
    </vehicle>
    <vehicle id="246" depart="246.00">
        <route edges="KBT_KFU_sb_int KFD_KXV_sb_5_int KFD_KXV_sb_2_int KXV_A_int KAN_int ABE_dest"/>
    </vehicle>
    <vehicle id="248" depart="248.00">
        <route edges="KBT_KFU_sb_int KFD_KXV_sb_5_int KFD_KXV_sb_2_int KXV_A_int KAW_int"/>
    </vehicle>
    <vehicle id="251" depart="251.00">
        <route edges="KBT_KFU_nb_5_int KTD_int KN_dest"/>
    </vehicle>
    <vehicle id="252" depart="252.00">
        <route edges="ABE_source KU_A_nb_2_int"/>
    </vehicle>
    <vehicle id="253" depart="253.00">
        <route edges="FD_source KFD_KXV_sb_5_int"/>
    </vehicle>
    <vehicle id="258" depart="258.00">
        <route edges="KA_int ABW_dest"/>
    </vehicle>
    <vehicle id="261" depart="261.00">
        <route edges="KU_A_nb_2_int KFD_A_nb_3_int KBT_KFU_nb_3_int KBT_KFU_nb_5_int TD1_dest_int"/>
    </vehicle>
    <vehicle id="262" depart="262.00">
        <route edges="KU_A_nb_2_int KFD_A_nb_3_int KBT_KFU_nb_3_int KBT_KFU_nb_5_int TD1_dest_int"/>
    </vehicle>
    <vehicle id="265" depart="265.00">
        <route edges="FD_source KFD_KXV_sb_5_int KFD_KXV_sb_2_int KXV_A_int"/>
    </vehicle>
    <vehicle id="270" depart="270.00">
        <route edges="TD1_source_int KBT_KFU_sb_int KFD_KXV_sb_5_int KFD_KXV_sb_2_int XV_dest"/>
    </vehicle>
    <vehicle id="271" depart="271.00">
        <route edges="BG_source KBT_KFU_sb_int KFD_KXV_sb_5_int KFD_KXV_sb_2_int KXV_A_int KAN_int ABE_dest"/>
    </vehicle>
    <vehicle id="274" depart="274.00">
        <route edges="KXV_A_int KAW_int ABW_dest"/>
    </vehicle>
    <vehicle id="276" depart="276.00">
        <route edges="BG_source KBT_KFU_sb_int KBT_KFU_nb_3_int KBT_KFU_nb_5_int TD1_dest_int"/>
    </vehicle>
    <vehicle id="277" depart="277.00">
        <route edges="TD_source TD1_source_int KTD_int"/>
    </vehicle>
    <vehicle id="278" depart="278.00">
        <route edges="FD_source KFD_KXV_sb_5_int KFD_KXV_sb_2_int XV_dest"/>
    </vehicle>
    <vehicle id="280" depart="280.00">
        <route edges="KBT_KFU_sb_int"/>
    </vehicle>
    <vehicle id="282" depart="282.00">
        <route edges="TD_source TD1_source_int"/>
    </vehicle>
    <vehicle id="283" depart="283.00">
        <route edges="BG_source KBT_KFU_sb_int KFD_KXV_sb_5_int KFD_KXV_sb_2_int XV_dest"/>
    </vehicle>
    <vehicle id="288" depart="288.00">
        <route edges="KFD_KXV_sb_5_int"/>
    </vehicle>
    <vehicle id="291" depart="291.00">
        <route edges="TD1_source_int KBT_KFU_sb_int KFD_KXV_sb_5_int KFD_KXV_sb_2_int KXV_A_int KAN_int"/>
    </vehicle>
    <vehicle id="293" depart="293.00">
        <route edges="KFD_A_nb_3_int KBT_KFU_nb_3_int KBT_KFU_nb_5_int KTD_int"/>
    </vehicle>
    <vehicle id="299" depart="299.00">
        <route edges="ABE_source KU_A_nb_2_int KFD_A_nb_3_int UR1_dest"/>
    </vehicle>
    <vehicle id="306" depart="306.00">
        <route edges="KN_source KBT_KFU_sb_int KFD_KXV_sb_5_int"/>
    </vehicle>
    <vehicle id="307" depart="307.00">
        <route edges="KFD_KXV_sb_5_int KFD_KXV_sb_2_int"/>
    </vehicle>
    <vehicle id="311" depart="311.00">
        <route edges="KAN_int"/>
    </vehicle>
    <vehicle id="318" depart="318.00">
        <route edges="KAN_int ABE_dest"/>
    </vehicle>
    <vehicle id="321" depart="321.00">
        <route edges="KXV_A_int KAW_int"/>
    </vehicle>
    <vehicle id="322" depart="322.00">
        <route edges="TD_source TD1_source_int KBT_KFU_sb_int KFD_KXV_sb_5_int"/>
    </vehicle>
    <vehicle id="323" depart="323.00">
        <route edges="TD_source TD0_int KN_dest"/>
    </vehicle>
    <vehicle id="326" depart="326.00">
        <route edges="UR1_source KFD_KXV_sb_5_int"/>
    </vehicle>
    <vehicle id="330" depart="330.00">
        <route edges="KN_source KBT_KFU_sb_int KBT_KFU_nb_3_int KBT_KFU_nb_5_int"/>
    </vehicle>
    <vehicle id="331" depart="331.00">
        <route edges="XV_source KXV_A_int KAN_int"/>
    </vehicle>
    <vehicle id="334" depart="334.00">
        <route edges="KFD_KXV_sb_5_int KFD_KXV_sb_2_int"/>
    </vehicle>
    <vehicle id="335" depart="335.00">
        <route edges="KFD_A_nb_3_int KBT_KFU_nb_3_int KBT_KFU_nb_5_int TD1_dest_int TD_dest"/>
    </vehicle>
    <vehicle id="337" depart="337.00">
        <route edges="KTD_int"/>
    </vehicle>
    <vehicle id="343" depart="343.00">
        <route edges="KN_source KBT_KFU_sb_int KBT_KFU_nb_3_int"/>
    </vehicle>
    <vehicle id="348" depart="348.00">
        <route edges="KU_A_nb_2_int KFD_A_nb_3_int UR1_dest"/>
    </vehicle>
    <vehicle id="349" depart="349.00">
        <route edges="KBT_KFU_sb_int KBT_KFU_nb_3_int KBT_KFU_nb_5_int KTD_int KN_dest"/>
    </vehicle>
    <vehicle id="350" depart="350.00">
        <route edges="KU_A_nb_2_int KFD_A_nb_3_int UR0_dest"/>
    </vehicle>
    <vehicle id="351" depart="351.00">
        <route edges="TD1_source_int KBT_KFU_sb_int KFD_KXV_sb_5_int KFD_KXV_sb_2_int KXV_A_int KAW_int ABW_dest"/>
    </vehicle>
    <vehicle id="353" depart="353.00">
        <route edges="TD0_int KN_dest"/>
    </vehicle>
    <vehicle id="355" depart="355.00">
        <route edges="KXV_A_int"/>
    </vehicle>
    <vehicle id="356" depart="356.00">
        <route edges="UR1_source KFD_KXV_sb_5_int KHW_dest"/>
    </vehicle>
    <vehicle id="357" depart="357.00">
        <route edges="KFD_KXV_sb_2_int KXV_A_int KAW_int ABW_dest"/>
    </vehicle>
    <vehicle id="359" depart="359.00">
        <route edges="KBT_KFU_nb_3_int"/>
    </vehicle>
    <vehicle id="360" depart="360.00">
        <route edges="BG_source KBT_KFU_sb_int KFD_KXV_sb_5_int KFD_KXV_sb_2_int XV_dest"/>
    </vehicle>
    <vehicle id="361" depart="361.00">
        <route edges="TD1_source_int KTD_int KN_dest"/>
    </vehicle>
    <vehicle id="362" depart="362.00">
        <route edges="UR1_source KFD_KXV_sb_5_int KFD_KXV_sb_2_int XV_dest"/>
    </vehicle>
    <vehicle id="363" depart="363.00">
        <route edges="KU_A_nb_2_int KFD_A_nb_3_int KBT_KFU_nb_3_int"/>
    </vehicle>
    <vehicle id="368" depart="368.00">
        <route edges="KFD_KXV_sb_2_int KXV_A_int KAN_int"/>
    </vehicle>
    <vehicle id="369" depart="369.00">
        <route edges="KBT_KFU_nb_3_int KBT_KFU_nb_5_int"/>
    </vehicle>
    <vehicle id="370" depart="370.00">
        <route edges="KU_A_nb_2_int KFD_A_nb_3_int KBT_KFU_nb_3_int KBT_KFU_nb_5_int TD1_dest_int TD_dest"/>
    </vehicle>
    <vehicle id="373" depart="373.00">
        <route edges="TD1_source_int KTD_int KN_dest"/>
    </vehicle>
    <vehicle id="374" depart="374.00">
        <route edges="KFD_A_nb_3_int KBT_KFU_nb_3_int KBT_KFU_nb_5_int"/>
    </vehicle>
    <vehicle id="376" depart="376.00">
        <route edges="KBT_KFU_sb_int KFD_KXV_sb_5_int KHW_dest"/>
    </vehicle>
    <vehicle id="383" depart="383.00">
        <route edges="KBT_KFU_sb_int KFD_KXV_sb_5_int KFD_KXV_sb_2_int KXV_A_int"/>
    </vehicle>
    <vehicle id="384" depart="384.00">
        <route edges="FD_source KFD_KXV_sb_5_int KFD_KXV_sb_2_int XV_dest"/>
    </vehicle>
    <vehicle id="386" depart="386.00">
        <route edges="FD_source KBT_KFU_nb_3_int KBT_KFU_nb_5_int KTD_int KN_dest"/>
    </vehicle>
    <vehicle id="387" depart="387.00">
        <route edges="KFD_KXV_sb_5_int KFD_KXV_sb_2_int KXV_A_int KAN_int"/>
    </vehicle>
    <vehicle id="390" depart="390.00">
        <route edges="TD1_source_int KBT_KFU_sb_int KFD_KXV_sb_5_int"/>
    </vehicle>
    <vehicle id="395" depart="395.00">
        <route edges="UR1_source KFD_KXV_sb_5_int KHW_dest"/>
    </vehicle>
    <vehicle id="396" depart="396.00">
        <route edges="TD_source TD1_source_int KBT_KFU_sb_int KBT_KFU_nb_3_int KBT_KFU_nb_5_int TD1_dest_int TD_dest"/>
    </vehicle>
    <vehicle id="398" depart="398.00">
        <route edges="KBT_KFU_sb_int UR1_dest"/>
    </vehicle>
    <vehicle id="401" depart="401.00">
        <route edges="KN_source KBT_KFU_sb_int KFD_KXV_sb_5_int KFD_KXV_sb_2_int XV_dest"/>
    </vehicle>
    <vehicle id="402" depart="402.00">
        <route edges="KFD_KXV_sb_2_int KXV_A_int KAW_int"/>
    </vehicle>
    <vehicle id="405" depart="405.00">
        <route edges="KFD_A_nb_3_int KBT_KFU_nb_3_int KBT_KFU_nb_5_int"/>
    </vehicle>
    <vehicle id="414" depart="414.00">
        <route edges="KN_source TD1_dest_int TD_dest"/>
    </vehicle>
    <vehicle id="415" depart="415.00">
        <route edges="TD_source TD1_source_int KBT_KFU_sb_int KFD_KXV_sb_5_int KFD_KXV_sb_2_int"/>
    </vehicle>
    <vehicle id="416" depart="416.00">
        <route edges="KFD_KXV_sb_5_int KFD_KXV_sb_2_int"/>
    </vehicle>
    <vehicle id="421" depart="421.00">
        <route edges="KU_A_nb_2_int KFD_A_nb_3_int KBT_KFU_nb_3_int KBT_KFU_nb_5_int TD1_dest_int TD_dest"/>
    </vehicle>
    <vehicle id="422" depart="422.00">
        <route edges="TD_source TD1_source_int KBT_KFU_sb_int KBT_KFU_nb_3_int KBT_KFU_nb_5_int TD1_dest_int TD_dest"/>
    </vehicle>
    <vehicle id="423" depart="423.00">
        <route edges="KBT_KFU_nb_5_int"/>
    </vehicle>
    <vehicle id="425" depart="425.00">
        <route edges="TD_source TD1_source_int KBT_KFU_sb_int KFD_KXV_sb_5_int KFD_KXV_sb_2_int KXV_A_int KAN_int ABE_dest"/>
    </vehicle>
    <vehicle id="427" depart="427.00">
        <route edges="UR1_source KFD_KXV_sb_5_int KFD_KXV_sb_2_int XV_dest"/>
    </vehicle>
    <vehicle id="430" depart="430.00">
        <route edges="TD_source TD1_source_int KBT_KFU_sb_int KFD_KXV_sb_5_int KFD_KXV_sb_2_int"/>
    </vehicle>
    <vehicle id="434" depart="434.00">
        <route edges="FD_source KFD_KXV_sb_5_int KHW_dest"/>
    </vehicle>
    <vehicle id="437" depart="437.00">
        <route edges="TD_source TD1_source_int KTD_int"/>
    </vehicle>
    <vehicle id="439" depart="439.00">
        <route edges="FD_source KFD_KXV_sb_5_int"/>
    </vehicle>
    <vehicle id="442" depart="442.00">
        <route edges="UR0_source KFD_KXV_sb_5_int KFD_KXV_sb_2_int KXV_A_int"/>
    </vehicle>
    <vehicle id="443" depart="443.00">
        <route edges="FD_source KFD_KXV_sb_5_int KFD_KXV_sb_2_int"/>
    </vehicle>
    <vehicle id="444" depart="444.00">
        <route edges="KBT_KFU_nb_3_int KBT_KFU_nb_5_int KTD_int"/>
    </vehicle>
    <vehicle id="449" depart="449.00">
        <route edges="KN_source KTD_int KN_dest"/>
    </vehicle>
    <vehicle id="458" depart="458.00">
        <route edges="KTD_int"/>
    </vehicle>
    <vehicle id="460" depart="460.00">
        <route edges="KU_A_nb_2_int KFD_A_nb_3_int KBT_KFU_nb_3_int KBT_KFU_nb_5_int TD1_dest_int TD_dest"/>
    </vehicle>
    <vehicle id="462" depart="462.00">
        <route edges="KU_A_nb_2_int KFD_A_nb_3_int KBT_KFU_nb_3_int KBT_KFU_nb_5_int"/>
    </vehicle>
    <vehicle id="463" depart="463.00">
        <route edges="KFD_A_nb_3_int KBT_KFU_nb_3_int KBT_KFU_nb_5_int KTD_int KN_dest"/>
    </vehicle>
    <vehicle id="467" depart="467.00">
        <route edges="KFD_KXV_sb_5_int KFD_KXV_sb_2_int XV_dest"/>
    </vehicle>
    <vehicle id="469" depart="469.00">
        <route edges="TD1_source_int KBT_KFU_sb_int KBT_KFU_nb_3_int"/>
    </vehicle>
    <vehicle id="470" depart="470.00">
        <route edges="TD1_source_int KBT_KFU_sb_int KFD_KXV_sb_5_int"/>
    </vehicle>
    <vehicle id="473" depart="473.00">
        <route edges="XV_source KXV_A_int KAW_int"/>
    </vehicle>
    <vehicle id="477" depart="477.00">
        <route edges="KBT_KFU_nb_5_int TD1_dest_int"/>
    </vehicle>
    <vehicle id="480" depart="480.00">
        <route edges="KU_A_nb_2_int KFD_A_nb_3_int KBT_KFU_nb_3_int KBT_KFU_nb_5_int KTD_int"/>
    </vehicle>
    <vehicle id="481" depart="481.00">
        <route edges="TD1_source_int KBT_KFU_sb_int UR1_dest"/>
    </vehicle>
    <vehicle id="483" depart="483.00">
        <route edges="ABE_source KU_A_nb_2_int KFD_A_nb_3_int UR0_dest"/>
    </vehicle>
    <vehicle id="484" depart="484.00">
        <route edges="KN_source KBT_KFU_sb_int UR0_dest"/>
    </vehicle>
    <vehicle id="485" depart="485.00">
        <route edges="KAW_int ABW_dest"/>
    </vehicle>
    <vehicle id="486" depart="486.00">
        <route edges="TD1_source_int KBT_KFU_sb_int UR0_dest"/>
    </vehicle>
    <vehicle id="488" depart="488.00">
        <route edges="FD_source UR1_dest"/>
    </vehicle>
    <vehicle id="490" depart="490.00">
        <route edges="BG_source KBT_KFU_sb_int UR0_dest"/>
    </vehicle>
    <vehicle id="491" depart="491.00">
        <route edges="FD_source KFD_KXV_sb_5_int KFD_KXV_sb_2_int"/>
    </vehicle>
    <vehicle id="493" depart="493.00">
        <route edges="UR1_source KFD_KXV_sb_5_int KFD_KXV_sb_2_int"/>
    </vehicle>
    <vehicle id="495" depart="495.00">
        <route edges="KBT_KFU_sb_int KFD_KXV_sb_5_int KFD_KXV_sb_2_int KXV_A_int KAN_int"/>
    </vehicle>
    <vehicle id="497" depart="497.00">
        <route edges="UR1_source KFD_KXV_sb_5_int KFD_KXV_sb_2_int KXV_A_int KAN_int ABE_dest"/>
    </vehicle>
    <vehicle id="500" depart="500.00">
        <route edges="BG_source KBT_KFU_sb_int KFD_KXV_sb_5_int KFD_KXV_sb_2_int KXV_A_int"/>
    </vehicle>
    <vehicle id="501" depart="501.00">
        <route edges="KFD_KXV_sb_5_int KFD_KXV_sb_2_int XV_dest"/>
    </vehicle>
    <vehicle id="503" depart="503.00">
        <route edges="KAN_int"/>
    </vehicle>
    <vehicle id="504" depart="504.00">
        <route edges="TD_source TD1_source_int KBT_KFU_sb_int KFD_KXV_sb_5_int KFD_KXV_sb_2_int"/>
    </vehicle>
    <vehicle id="505" depart="505.00">
        <route edges="KU_A_nb_2_int"/>
    </vehicle>
    <vehicle id="506" depart="506.00">
        <route edges="KN_source KBT_KFU_sb_int KFD_KXV_sb_5_int KFD_KXV_sb_2_int KXV_A_int KAN_int ABE_dest"/>
    </vehicle>
    <vehicle id="508" depart="508.00">
        <route edges="FD_source KBT_KFU_nb_3_int KBT_KFU_nb_5_int KTD_int KN_dest"/>
    </vehicle>
    <vehicle id="511" depart="511.00">
        <route edges="TD_source TD1_source_int KBT_KFU_sb_int KBT_KFU_nb_3_int KBT_KFU_nb_5_int"/>