<routes>
    <!--Four Hour Off Peak Period: 10AM to 2PM-->
    
    <!-- Define vehicle type -->
    <vType length="4.425" width="1.1"  id="phCar" minGap="0.4" speedFactor="normc(1,0.1,0.2,2)" vClass="passenger" sigma="0" tau="0.5" decel="15.0" color="0,255,0"/>
    <vType length="1.5" width="0.5" id="phMotor" minGap="0.2" speedFactor="normc(1.00,0.00)" vClass="motorcycle" sigma="0" tau="0.5" decel="15.0" color="0,0,255"/>

    <!-- Define routes -->
    <route id="ka-1" edges="R7 aurora-mid_int aurora-upper_out"/>
    <route id="ka-4" edges="L5 L6 aurora-lower_out"/>
    <route id="ka-6" edges="L5 katip-aurora-curve aurora-upper_out"/>
    <route id="ka-8" edges="aurora-lower_in aurora-lower_out"/>
    <route id="ka-10" edges="aurora-upper_in L7"/>
    <route id="ka-11" edges="aurora-upper_in aurora-mid_int aurora-upper_out"/>
    <route id="ka-12" edges="aurora-upper_in R6"/>
    <route id="kuf-2" edges="R5 R4"/>
    <route id="kuf-3" edges="R5 univ_road-lower_out"/>
    <route id="kuf-3a" edges="R5 univ_road-upper_out"/>
    <route id="kuf-4" edges="L2 univ_road-lower_out"/>
    <route id="kuf-4a" edges="L2 R4"/>
    <route id="kuf-4b" edges="L2 univ_road-upper_out"/>
    <route id="kuf-5" edges="L2 L3"/>
    <route id="kuf-7" edges="f.dela_rosa-road R4"/>
    <route id="kuf-8" edges="f.dela_rosa-road univ_road-lower_out"/>
    <route id="kuf-8a" edges="f.dela_rosa-road univ_road-upper_out"/>
    <route id="kuf-9" edges="f.dela_rosa-road L3"/>
    <route id="kuf-10b" edges="univ_road-lower_in L3"/>
    <route id="kuf-10c" edges="univ_road-upper_in L3"/>
    <route id="kuf-12a" edges="univ_road-upper_in R4"/>
    <route id="kbt-2" edges="R3 R2 R1"/>
    <route id="kbt-3" edges="R3 thornton_drive-out thornton_drive-extension-out"/>
    <route id="kbt-4" edges="L1 thornton_drive-out thornton_drive-extension-out"/>
    <route id="kbt-4a" edges="L1 R2 R1"/>
    <route id="kbt-5" edges="L1 L2"/>
    <route id="kbt-6" edges="L1 b.gonzales-road-out"/>
    <route id="kbt-7" edges="b.gonzales-road-in R2 R1"/>
    <route id="kbt-8" edges="b.gonzales-road-in thornton_drive-out thornton_drive-extension-out"/>
    <route id="kbt-9" edges="b.gonzales-road-in L2"/>
    <route id="kbt-10" edges="thornton_drive-upper_in L2"/>
    <route id="kbt-11" edges="thornton_drive-upper_in b.gonzales-road-out"/>
    <route id="kbt-12" edges="thornton_drive-upper_in R2 R1"/>

    <route id="ka-12_to_kuf-2" edges="aurora-upper_in R6 R5 R4"/>
    <route id="ka-12_to_kuf-3" edges="aurora-upper_in R6 R5 univ_road-lower_out"/>
    <route id="ka-12_to_kuf-3a" edges="aurora-upper_in R6 R5 univ_road-upper_out"/>
    <route id="kuf-7_to_kbt-2" edges="f.dela_rosa-road R4 R3 R2 R1"/>
    <route id="kuf-7_to_kbt-3" edges="f.dela_rosa-road R4 R3 thornton_drive-out thornton_drive-extension-out"/>
    <route id="kuf-9_to_ka-4" edges="f.dela_rosa-road L3 L4 L5 L6 aurora-lower_out"/>
    <route id="kuf-9_to_ka-6" edges="f.dela_rosa-road L3 L4 L5 katip-aurora-curve aurora-upper_out"/>
    <route id="kuf-10b_to_ka-4" edges="univ_road-lower_in L3 L4 L5 L6 aurora-lower_out"/>
    <route id="kuf-10b_to_ka-6" edges="univ_road-lower_in L3 L4 L5 katip-aurora-curve aurora-upper_out"/>
    <route id="kuf-10c_to_ka-4" edges="univ_road-upper_in L3 L4 L5 L6 aurora-lower_out"/>
    <route id="kuf-10c_to_ka-6" edges="univ_road-upper_in L3 L4 L5 katip-aurora-curve aurora-upper_out"/>
    <route id="kbt-5_to_kuf-4" edges="L1 L2 univ_road-lower_out"/>
    <route id="kbt-5_to_kuf-4a_to_kbt-2" edges="L1 L2 R4 R3 R2 R1"/>
    <route id="kbt-5_to_kuf-4a_to_kbt-3" edges="L1 L2 R4 R3 thornton_drive-out thornton_drive-extension-out"/>
    <route id="kbt-5_to_kuf-4b" edges="L1 L2 univ_road-upper_out"/>
    <route id="kbt-5_to_kuf-5" edges="L1 L2 L3"/>
    <route id="kbt-9_to_kuf-4" edges="b.gonzales-road-in L2 univ_road-lower_out"/>
    <route id="kbt-9_to_kuf-4b" edges="b.gonzales-road-in L2 univ_road-upper_out"/>
    <route id="kbt-9_to_kuf-5" edges="b.gonzales-road-in L2 L3"/>
    <route id="kbt-10_to_kuf-4" edges="thornton_drive-upper_in L2 univ_road-lower_out"/>
    <route id="kbt-10_to_kuf-4b" edges="thornton_drive-upper_in L2 univ_road-upper_out"/>
    <route id="kbt-10_to_kuf-5" edges="thornton_drive-upper_in L2 L3"/>
    
    <!-- Define flows (created in distribute-profile.py) -->
    <!--10AM to 11AM-->
    <flow id ="f_0" type = "phMotor" begin="0.00" route="ka-1" end="3600.00" number="283" departLane="best" departPos="free" departSpeed="last"/>
    <flow id ="f_1" type = "phCar" begin="0.00" route="ka-1" end="3600.00" number="188" departLane="best" departPos="free" departSpeed="last"/>
    <flow id ="f_2" type = "phMotor" begin="0.00" route="ka-8" end="3600.00" number="975" departLane="best" departPos="free" departSpeed="last"/>
    <flow id ="f_3" type = "phCar" begin="0.00" route="ka-8" end="3600.00" number="650" departLane="best" departPos="free" departSpeed="last"/>
    <flow id ="f_4" type = "phMotor" begin="0.00" route="ka-10" end="3600.00" number="381" departLane="best" departPos="free" departSpeed="last"/>
    <flow id ="f_5" type = "phCar" begin="0.00" route="ka-10" end="3600.00" number="254" departLane="best" departPos="free" departSpeed="last"/>
    <flow id ="f_6" type = "phMotor" begin="0.00" route="ka-11" end="3600.00" number="1566" departLane="best" departPos="free" departSpeed="last"/>
    <flow id ="f_7" type = "phCar" begin="0.00" route="ka-11" end="3600.00" number="1044" departLane="best" departPos="free" departSpeed="last"/>
    <flow id ="f_8" type = "phMotor" begin="0.00" route="ka-12_to_kuf-2" end="3600.00" number="1991" departLane="best" departPos="free" departSpeed="last"/>
    <flow id ="f_9" type = "phCar" begin="0.00" route="ka-12_to_kuf-2" end="3600.00" number="1327" departLane="best" departPos="free" departSpeed="last"/>
    <flow id ="f_10" type = "phMotor" begin="0.00" route="ka-12_to_kuf-3" end="3600.00" number="128" departLane="best" departPos="free" departSpeed="last"/>
    <flow id ="f_11" type = "phCar" begin="0.00" route="ka-12_to_kuf-3" end="3600.00" number="86" departLane="best" departPos="free" departSpeed="last"/>
    <flow id ="f_12" type = "phMotor" begin="0.00" route="ka-12_to_kuf-3a" end="3600.00" number="14" departLane="best" departPos="free" departSpeed="last"/>
    <flow id ="f_13" type = "phCar" begin="0.00" route="ka-12_to_kuf-3a" end="3600.00" number="10" departLane="best" departPos="free" departSpeed="last"/>
    <flow id ="f_14" type = "phMotor" begin="0.00" route="kuf-7_to_kbt-2" end="3600.00" number="89" departLane="best" departPos="free" departSpeed="last"/>
    <flow id ="f_15" type = "phCar" begin="0.00" route="kuf-7_to_kbt-2" end="3600.00" number="60" departLane="best" departPos="free" departSpeed="last"/>
    <flow id ="f_16" type = "phMotor" begin="0.00" route="kuf-7_to_kbt-3" end="3600.00" number="1" departLane="best" departPos="free" departSpeed="last"/>
    <flow id ="f_17" type = "phMotor" begin="0.00" route="kuf-8" end="3600.00" number="53" departLane="best" departPos="free" departSpeed="last"/>
    <flow id ="f_18" type = "phCar" begin="0.00" route="kuf-8" end="3600.00" number="35" departLane="best" departPos="free" departSpeed="last"/>
    <flow id ="f_19" type = "phMotor" begin="0.00" route="kuf-8a" end="3600.00" number="52" departLane="best" departPos="free" departSpeed="last"/>
    <flow id ="f_20" type = "phCar" begin="0.00" route="kuf-8a" end="3600.00" number="34" departLane="best" departPos="free" departSpeed="last"/>
    <flow id ="f_21" type = "phMotor" begin="0.00" route="kuf-9_to_ka-4" end="3600.00" number="52" departLane="best" departPos="free" departSpeed="last"/>
    <flow id ="f_22" type = "phCar" begin="0.00" route="kuf-9_to_ka-4" end="3600.00" number="34" departLane="best" departPos="free" departSpeed="last"/>
    <flow id ="f_23" type = "phMotor" begin="0.00" route="kuf-9_to_ka-6" end="3600.00" number="2" departLane="best" departPos="free" departSpeed="last"/>
    <flow id ="f_24" type = "phCar" begin="0.00" route="kuf-9_to_ka-6" end="3600.00" number="2" departLane="best" departPos="free" departSpeed="last"/>
    <flow id ="f_25" type = "phMotor" begin="0.00" route="kuf-10b_to_ka-4" end="3600.00" number="130" departLane="best" departPos="free" departSpeed="last"/>
    <flow id ="f_26" type = "phCar" begin="0.00" route="kuf-10b_to_ka-4" end="3600.00" number="86" departLane="best" departPos="free" departSpeed="last"/>
    <flow id ="f_27" type = "phMotor" begin="0.00" route="kuf-10b_to_ka-6" end="3600.00" number="6" departLane="best" departPos="free" departSpeed="last"/>
    <flow id ="f_28" type = "phCar" begin="0.00" route="kuf-10b_to_ka-6" end="3600.00" number="4" departLane="best" departPos="free" departSpeed="last"/>
    <flow id ="f_29" type = "phMotor" begin="0.00" route="kuf-10c_to_ka-4" end="3600.00" number="331" departLane="best" departPos="free" departSpeed="last"/>
    <flow id ="f_30" type = "phCar" begin="0.00" route="kuf-10c_to_ka-4" end="3600.00" number="220" departLane="best" departPos="free" departSpeed="last"/>
    <flow id ="f_31" type = "phMotor" begin="0.00" route="kuf-10c_to_ka-6" end="3600.00" number="15" departLane="best" departPos="free" departSpeed="last"/>
    <flow id ="f_32" type = "phCar" begin="0.00" route="kuf-10c_to_ka-6" end="3600.00" number="10" departLane="best" departPos="free" departSpeed="last"/>
    <flow id ="f_33" type = "phMotor" begin="0.00" route="kbt-4" end="3600.00" number="25" departLane="best" departPos="free" departSpeed="last"/>
    <flow id ="f_34" type = "phCar" begin="0.00" route="kbt-4" end="3600.00" number="16" departLane="best" departPos="free" departSpeed="last"/>
    <flow id ="f_35" type = "phMotor" begin="0.00" route="kbt-4a" end="3600.00" number="224" departLane="best" departPos="free" departSpeed="last"/>
    <flow id ="f_36" type = "phCar" begin="0.00" route="kbt-4a" end="3600.00" number="149" departLane="best" departPos="free" departSpeed="last"/>
    <flow id ="f_37" type = "phMotor" begin="0.00" route="kbt-5_to_kuf-4" end="3600.00" number="68" departLane="best" departPos="free" departSpeed="last"/>
    <flow id ="f_38" type = "phCar" begin="0.00" route="kbt-5_to_kuf-4" end="3600.00" number="46" departLane="best" departPos="free" departSpeed="last"/>
    <flow id ="f_39" type = "phMotor" begin="0.00" route="kbt-5_to_kuf-4a_to_kbt-2" end="3600.00" number="1" departLane="best" departPos="free" departSpeed="last"/>
    <flow id ="f_40" type = "phMotor" begin="0.00" route="kbt-5_to_kuf-4a_to_kbt-3" end="3600.00" number="1" departLane="best" departPos="free" departSpeed="last"/>
    <flow id ="f_41" type = "phCar" begin="0.00" route="kbt-5_to_kuf-4a_to_kbt-3" end="3600.00" number="1" departLane="best" departPos="free" departSpeed="last"/>
    <flow id ="f_42" type = "phMotor" begin="0.00" route="kbt-5_to_kuf-4b" end="3600.00" number="59" departLane="best" departPos="free" departSpeed="last"/>
    <flow id ="f_43" type = "phCar" begin="0.00" route="kbt-5_to_kuf-4b" end="3600.00" number="39" departLane="best" departPos="free" departSpeed="last"/>
    <flow id ="f_44" type = "phMotor" begin="0.00" route="kbt-5_to_kuf-5" end="3600.00" number="2423" departLane="best" departPos="free" departSpeed="last"/>
    <flow id ="f_45" type = "phCar" begin="0.00" route="kbt-5_to_kuf-5" end="3600.00" number="1615" departLane="best" departPos="free" departSpeed="last"/>
    <flow id ="f_46" type = "phMotor" begin="0.00" route="kbt-6" end="3600.00" number="309" departLane="best" departPos="free" departSpeed="last"/>
    <flow id ="f_47" type = "phCar" begin="0.00" route="kbt-6" end="3600.00" number="206" departLane="best" departPos="free" departSpeed="last"/>
    <flow id ="f_48" type = "phMotor" begin="0.00" route="kbt-7" end="3600.00" number="337" departLane="best" departPos="free" departSpeed="last"/>
    <flow id ="f_49" type = "phCar" begin="0.00" route="kbt-7" end="3600.00" number="225" departLane="best" departPos="free" departSpeed="last"/>
    <flow id ="f_50" type = "phMotor" begin="0.00" route="kbt-8" end="3600.00" number="7" departLane="best" departPos="free" departSpeed="last"/>
    <flow id ="f_51" type = "phCar" begin="0.00" route="kbt-8" end="3600.00" number="5" departLane="best" departPos="free" departSpeed="last"/>
    <flow id ="f_52" type = "phMotor" begin="0.00" route="kbt-9_to_kuf-4" end="3600.00" number="1" departLane="best" departPos="free" departSpeed="last"/>
    <flow id ="f_53" type = "phMotor" begin="0.00" route="kbt-9_to_kuf-4b" end="3600.00" number="1" departLane="best" departPos="free" departSpeed="last"/>
    <flow id ="f_54" type = "phMotor" begin="0.00" route="kbt-9_to_kuf-5" end="3600.00" number="16" departLane="best" departPos="free" departSpeed="last"/>
    <flow id ="f_55" type = "phCar" begin="0.00" route="kbt-9_to_kuf-5" end="3600.00" number="11" departLane="best" departPos="free" departSpeed="last"/>
    <flow id ="f_56" type = "phMotor" begin="0.00" route="kbt-10_to_kuf-4" end="3600.00" number="2" departLane="best" departPos="free" departSpeed="last"/>
    <flow id ="f_57" type = "phCar" begin="0.00" route="kbt-10_to_kuf-4" end="3600.00" number="1" departLane="best" departPos="free" departSpeed="last"/>
    <flow id ="f_58" type = "phMotor" begin="0.00" route="kbt-10_to_kuf-4b" end="3600.00" number="2" departLane="best" departPos="free" departSpeed="last"/>
    <flow id ="f_59" type = "phCar" begin="0.00" route="kbt-10_to_kuf-4b" end="3600.00" number="1" departLane="best" departPos="free" departSpeed="last"/>
    <flow id ="f_60" type = "phMotor" begin="0.00" route="kbt-10_to_kuf-5" end="3600.00" number="65" departLane="best" departPos="free" departSpeed="last"/>
    <flow id ="f_61" type = "phCar" begin="0.00" route="kbt-10_to_kuf-5" end="3600.00" number="43" departLane="best" departPos="free" departSpeed="last"/>
    <flow id ="f_62" type = "phMotor" begin="0.00" route="kbt-11" end="3600.00" number="15" departLane="best" departPos="free" departSpeed="last"/>
    <flow id ="f_63" type = "phCar" begin="0.00" route="kbt-11" end="3600.00" number="10" departLane="best" departPos="free" departSpeed="last"/>
    <flow id ="f_64" type = "phMotor" begin="0.00" route="kbt-12" end="3600.00" number="5" departLane="best" departPos="free" departSpeed="last"/>
    <flow id ="f_65" type = "phCar" begin="0.00" route="kbt-12" end="3600.00" number="4" departLane="best" departPos="free" departSpeed="last"/>
    <!--11AM to 12NN-->
    <flow id ="f_66" type = "phMotor" begin="3600.00" route="ka-1" end="7200.00" number="265" departLane="best" departPos="free" departSpeed="last"/>
    <flow id ="f_67" type = "phCar" begin="3600.00" route="ka-1" end="7200.00" number="177" departLane="best" departPos="free" departSpeed="last"/>
    <flow id ="f_68" type = "phMotor" begin="3600.00" route="ka-8" end="7200.00" number="914" departLane="best" departPos="free" departSpeed="last"/>
    <flow id ="f_69" type = "phCar" begin="3600.00" route="ka-8" end="7200.00" number="610" departLane="best" departPos="free" departSpeed="last"/>
    <flow id ="f_70" type = "phMotor" begin="3600.00" route="ka-10" end="7200.00" number="358" departLane="best" departPos="free" departSpeed="last"/>
    <flow id ="f_71" type = "phCar" begin="3600.00" route="ka-10" end="7200.00" number="238" departLane="best" departPos="free" departSpeed="last"/>
    <flow id ="f_72" type = "phMotor" begin="3600.00" route="ka-11" end="7200.00" number="1469" departLane="best" departPos="free" departSpeed="last"/>
    <flow id ="f_73" type = "phCar" begin="3600.00" route="ka-11" end="7200.00" number="980" departLane="best" departPos="free" departSpeed="last"/>
    <flow id ="f_74" type = "phMotor" begin="3600.00" route="ka-12_to_kuf-2" end="7200.00" number="1868" departLane="best" departPos="free" departSpeed="last"/>
    <flow id ="f_75" type = "phCar" begin="3600.00" route="ka-12_to_kuf-2" end="7200.00" number="1245" departLane="best" departPos="free" departSpeed="last"/>
    <flow id ="f_76" type = "phMotor" begin="3600.00" route="ka-12_to_kuf-3" end="7200.00" number="121" departLane="best" departPos="free" departSpeed="last"/>
    <flow id ="f_77" type = "phCar" begin="3600.00" route="ka-12_to_kuf-3" end="7200.00" number="80" departLane="best" departPos="free" departSpeed="last"/>
    <flow id ="f_78" type = "phMotor" begin="3600.00" route="ka-12_to_kuf-3a" end="7200.00" number="13" departLane="best" departPos="free" departSpeed="last"/>
    <flow id ="f_79" type = "phCar" begin="3600.00" route="ka-12_to_kuf-3a" end="7200.00" number="9" departLane="best" departPos="free" departSpeed="last"/>
    <flow id ="f_80" type = "phMotor" begin="3600.00" route="kuf-7_to_kbt-2" end="7200.00" number="84" departLane="best" departPos="free" departSpeed="last"/>
    <flow id ="f_81" type = "phCar" begin="3600.00" route="kuf-7_to_kbt-2" end="7200.00" number="56" departLane="best" departPos="free" departSpeed="last"/>
    <flow id ="f_82" type = "phMotor" begin="3600.00" route="kuf-7_to_kbt-3" end="7200.00" number="1" departLane="best" departPos="free" departSpeed="last"/>
    <flow id ="f_83" type = "phMotor" begin="3600.00" route="kuf-8" end="7200.00" number="50" departLane="best" departPos="free" departSpeed="last"/>
    <flow id ="f_84" type = "phCar" begin="3600.00" route="kuf-8" end="7200.00" number="33" departLane="best" departPos="free" departSpeed="last"/>
    <flow id ="f_85" type = "phMotor" begin="3600.00" route="kuf-8a" end="7200.00" number="49" departLane="best" departPos="free" departSpeed="last"/>
    <flow id ="f_86" type = "phCar" begin="3600.00" route="kuf-8a" end="7200.00" number="32" departLane="best" departPos="free" departSpeed="last"/>
    <flow id ="f_87" type = "phMotor" begin="3600.00" route="kuf-9_to_ka-4" end="7200.00" number="49" departLane="best" departPos="free" departSpeed="last"/>
    <flow id ="f_88" type = "phCar" begin="3600.00" route="kuf-9_to_ka-4" end="7200.00" number="32" departLane="best" departPos="free" departSpeed="last"/>
    <flow id ="f_89" type = "phMotor" begin="3600.00" route="kuf-9_to_ka-6" end="7200.00" number="2" departLane="best" departPos="free" departSpeed="last"/>
    <flow id ="f_90" type = "phCar" begin="3600.00" route="kuf-9_to_ka-6" end="7200.00" number="2" departLane="best" departPos="free" departSpeed="last"/>
    <flow id ="f_91" type = "phMotor" begin="3600.00" route="kuf-10b_to_ka-4" end="7200.00" number="122" departLane="best" departPos="free" departSpeed="last"/>
    <flow id ="f_92" type = "phCar" begin="3600.00" route="kuf-10b_to_ka-4" end="7200.00" number="81" departLane="best" departPos="free" departSpeed="last"/>
    <flow id ="f_93" type = "phMotor" begin="3600.00" route="kuf-10b_to_ka-6" end="7200.00" number="5" departLane="best" departPos="free" departSpeed="last"/>
    <flow id ="f_94" type = "phCar" begin="3600.00" route="kuf-10b_to_ka-6" end="7200.00" number="4" departLane="best" departPos="free" departSpeed="last"/>
    <flow id ="f_95" type = "phMotor" begin="3600.00" route="kuf-10c_to_ka-4" end="7200.00" number="310" departLane="best" departPos="free" departSpeed="last"/>
    <flow id ="f_96" type = "phCar" begin="3600.00" route="kuf-10c_to_ka-4" end="7200.00" number="206" departLane="best" departPos="free" departSpeed="last"/>
    <flow id ="f_97" type = "phMotor" begin="3600.00" route="kuf-10c_to_ka-6" end="7200.00" number="14" departLane="best" departPos="free" departSpeed="last"/>
    <flow id ="f_98" type = "phCar" begin="3600.00" route="kuf-10c_to_ka-6" end="7200.00" number="10" departLane="best" departPos="free" departSpeed="last"/>
    <flow id ="f_99" type = "phMotor" begin="3600.00" route="kbt-4" end="7200.00" number="23" departLane="best" departPos="free" departSpeed="last"/>
    <flow id ="f_100" type = "phCar" begin="3600.00" route="kbt-4" end="7200.00" number="15" departLane="best" departPos="free" departSpeed="last"/>
    <flow id ="f_101" type = "phMotor" begin="3600.00" route="kbt-4a" end="7200.00" number="210" departLane="best" departPos="free" departSpeed="last"/>
    <flow id ="f_102" type = "phCar" begin="3600.00" route="kbt-4a" end="7200.00" number="140" departLane="best" departPos="free" departSpeed="last"/>
    <flow id ="f_103" type = "phMotor" begin="3600.00" route="kbt-5_to_kuf-4" end="7200.00" number="64" departLane="best" departPos="free" departSpeed="last"/>
    <flow id ="f_104" type = "phCar" begin="3600.00" route="kbt-5_to_kuf-4" end="7200.00" number="43" departLane="best" departPos="free" departSpeed="last"/>
    <flow id ="f_105" type = "phMotor" begin="3600.00" route="kbt-5_to_kuf-4a_to_kbt-2" end="7200.00" number="1" departLane="best" departPos="free" departSpeed="last"/>
    <flow id ="f_106" type = "phMotor" begin="3600.00" route="kbt-5_to_kuf-4a_to_kbt-3" end="7200.00" number="1" departLane="best" departPos="free" departSpeed="last"/>
    <flow id ="f_107" type = "phCar" begin="3600.00" route="kbt-5_to_kuf-4a_to_kbt-3" end="7200.00" number="1" departLane="best" departPos="free" departSpeed="last"/>
    <flow id ="f_108" type = "phMotor" begin="3600.00" route="kbt-5_to_kuf-4b" end="7200.00" number="55" departLane="best" departPos="free" departSpeed="last"/>
    <flow id ="f_109" type = "phCar" begin="3600.00" route="kbt-5_to_kuf-4b" end="7200.00" number="36" departLane="best" departPos="free" departSpeed="last"/>
    <flow id ="f_110" type = "phMotor" begin="3600.00" route="kbt-5_to_kuf-5" end="7200.00" number="2273" departLane="best" departPos="free" departSpeed="last"/>
    <flow id ="f_111" type = "phCar" begin="3600.00" route="kbt-5_to_kuf-5" end="7200.00" number="1516" departLane="best" departPos="free" departSpeed="last"/>
    <flow id ="f_112" type = "phMotor" begin="3600.00" route="kbt-6" end="7200.00" number="290" departLane="best" departPos="free" departSpeed="last"/>
    <flow id ="f_113" type = "phCar" begin="3600.00" route="kbt-6" end="7200.00" number="193" departLane="best" departPos="free" departSpeed="last"/>
    <flow id ="f_114" type = "phMotor" begin="3600.00" route="kbt-7" end="7200.00" number="317" departLane="best" departPos="free" departSpeed="last"/>
    <flow id ="f_115" type = "phCar" begin="3600.00" route="kbt-7" end="7200.00" number="211" departLane="best" departPos="free" departSpeed="last"/>
    <flow id ="f_116" type = "phMotor" begin="3600.00" route="kbt-8" end="7200.00" number="7" departLane="best" departPos="free" departSpeed="last"/>
    <flow id ="f_117" type = "phCar" begin="3600.00" route="kbt-8" end="7200.00" number="4" departLane="best" departPos="free" departSpeed="last"/>
    <flow id ="f_118" type = "phMotor" begin="3600.00" route="kbt-9_to_kuf-4" end="7200.00" number="1" departLane="best" departPos="free" departSpeed="last"/>
    <flow id ="f_119" type = "phMotor" begin="3600.00" route="kbt-9_to_kuf-4b" end="7200.00" number="1" departLane="best" departPos="free" departSpeed="last"/>
    <flow id ="f_120" type = "phMotor" begin="3600.00" route="kbt-9_to_kuf-5" end="7200.00" number="15" departLane="best" departPos="free" departSpeed="last"/>
    <flow id ="f_121" type = "phCar" begin="3600.00" route="kbt-9_to_kuf-5" end="7200.00" number="10" departLane="best" departPos="free" departSpeed="last"/>
    <flow id ="f_122" type = "phMotor" begin="3600.00" route="kbt-10_to_kuf-4" end="7200.00" number="2" departLane="best" departPos="free" departSpeed="last"/>
    <flow id ="f_123" type = "phCar" begin="3600.00" route="kbt-10_to_kuf-4" end="7200.00" number="1" departLane="best" departPos="free" departSpeed="last"/>
    <flow id ="f_124" type = "phMotor" begin="3600.00" route="kbt-10_to_kuf-4b" end="7200.00" number="1" departLane="best" departPos="free" departSpeed="last"/>
    <flow id ="f_125" type = "phCar" begin="3600.00" route="kbt-10_to_kuf-4b" end="7200.00" number="1" departLane="best" departPos="free" departSpeed="last"/>
    <flow id ="f_126" type = "phMotor" begin="3600.00" route="kbt-10_to_kuf-5" end="7200.00" number="61" departLane="best" departPos="free" departSpeed="last"/>
    <flow id ="f_127" type = "phCar" begin="3600.00" route="kbt-10_to_kuf-5" end="7200.00" number="41" departLane="best" departPos="free" departSpeed="last"/>
    <flow id ="f_128" type = "phMotor" begin="3600.00" route="kbt-11" end="7200.00" number="14" departLane="best" departPos="free" departSpeed="last"/>
    <flow id ="f_129" type = "phCar" begin="3600.00" route="kbt-11" end="7200.00" number="9" departLane="best" departPos="free" departSpeed="last"/>
    <flow id ="f_130" type = "phMotor" begin="3600.00" route="kbt-12" end="7200.00" number="5" departLane="best" departPos="free" departSpeed="last"/>
    <flow id ="f_131" type = "phCar" begin="3600.00" route="kbt-12" end="7200.00" number="4" departLane="best" departPos="free" departSpeed="last"/>
    <!--12NN to 1PM-->
    <flow id ="f_132" type = "phMotor" begin="7200.00" route="ka-1" end="10800.00" number="259" departLane="best" departPos="free" departSpeed="last"/>
    <flow id ="f_133" type = "phCar" begin="7200.00" route="ka-1" end="10800.00" number="173" departLane="best" departPos="free" departSpeed="last"/>
    <flow id ="f_134" type = "phMotor" begin="7200.00" route="ka-8" end="10800.00" number="893" departLane="best" departPos="free" departSpeed="last"/>
    <flow id ="f_135" type = "phCar" begin="7200.00" route="ka-8" end="10800.00" number="596" departLane="best" departPos="free" departSpeed="last"/>
    <flow id ="f_136" type = "phMotor" begin="7200.00" route="ka-10" end="10800.00" number="349" departLane="best" departPos="free" departSpeed="last"/>
    <flow id ="f_137" type = "phCar" begin="7200.00" route="ka-10" end="10800.00" number="233" departLane="best" departPos="free" departSpeed="last"/>
    <flow id ="f_138" type = "phMotor" begin="7200.00" route="ka-11" end="10800.00" number="1435" departLane="best" departPos="free" departSpeed="last"/>
    <flow id ="f_139" type = "phCar" begin="7200.00" route="ka-11" end="10800.00" number="957" departLane="best" departPos="free" departSpeed="last"/>
    <flow id ="f_140" type = "phMotor" begin="7200.00" route="ka-12_to_kuf-2" end="10800.00" number="1824" departLane="best" departPos="free" departSpeed="last"/>
    <flow id ="f_141" type = "phCar" begin="7200.00" route="ka-12_to_kuf-2" end="10800.00" number="1216" departLane="best" departPos="free" departSpeed="last"/>
    <flow id ="f_142" type = "phMotor" begin="7200.00" route="ka-12_to_kuf-3" end="10800.00" number="118" departLane="best" departPos="free" departSpeed="last"/>
    <flow id ="f_143" type = "phCar" begin="7200.00" route="ka-12_to_kuf-3" end="10800.00" number="79" departLane="best" departPos="free" departSpeed="last"/>
    <flow id ="f_144" type = "phMotor" begin="7200.00" route="ka-12_to_kuf-3a" end="10800.00" number="13" departLane="best" departPos="free" departSpeed="last"/>
    <flow id ="f_145" type = "phCar" begin="7200.00" route="ka-12_to_kuf-3a" end="10800.00" number="9" departLane="best" departPos="free" departSpeed="last"/>
    <flow id ="f_146" type = "phMotor" begin="7200.00" route="kuf-7_to_kbt-2" end="10800.00" number="82" departLane="best" departPos="free" departSpeed="last"/>
    <flow id ="f_147" type = "phCar" begin="7200.00" route="kuf-7_to_kbt-2" end="10800.00" number="54" departLane="best" departPos="free" departSpeed="last"/>
    <flow id ="f_148" type = "phMotor" begin="7200.00" route="kuf-7_to_kbt-3" end="10800.00" number="1" departLane="best" departPos="free" departSpeed="last"/>
    <flow id ="f_149" type = "phMotor" begin="7200.00" route="kuf-8" end="10800.00" number="49" departLane="best" departPos="free" departSpeed="last"/>
    <flow id ="f_150" type = "phCar" begin="7200.00" route="kuf-8" end="10800.00" number="32" departLane="best" departPos="free" departSpeed="last"/>
    <flow id ="f_151" type = "phMotor" begin="7200.00" route="kuf-8a" end="10800.00" number="47" departLane="best" departPos="free" departSpeed="last"/>
    <flow id ="f_152" type = "phCar" begin="7200.00" route="kuf-8a" end="10800.00" number="32" departLane="best" departPos="free" departSpeed="last"/>
    <flow id ="f_153" type = "phMotor" begin="7200.00" route="kuf-9_to_ka-4" end="10800.00" number="47" departLane="best" departPos="free" departSpeed="last"/>
    <flow id ="f_154" type = "phCar" begin="7200.00" route="kuf-9_to_ka-4" end="10800.00" number="32" departLane="best" departPos="free" departSpeed="last"/>
    <flow id ="f_155" type = "phMotor" begin="7200.00" route="kuf-9_to_ka-6" end="10800.00" number="2" departLane="best" departPos="free" departSpeed="last"/>
    <flow id ="f_156" type = "phCar" begin="7200.00" route="kuf-9_to_ka-6" end="10800.00" number="2" departLane="best" departPos="free" departSpeed="last"/>
    <flow id ="f_157" type = "phMotor" begin="7200.00" route="kuf-10b_to_ka-4" end="10800.00" number="119" departLane="best" departPos="free" departSpeed="last"/>
    <flow id ="f_158" type = "phCar" begin="7200.00" route="kuf-10b_to_ka-4" end="10800.00" number="79" departLane="best" departPos="free" departSpeed="last"/>
    <flow id ="f_159" type = "phMotor" begin="7200.00" route="kuf-10b_to_ka-6" end="10800.00" number="5" departLane="best" departPos="free" departSpeed="last"/>
    <flow id ="f_160" type = "phCar" begin="7200.00" route="kuf-10b_to_ka-6" end="10800.00" number="4" departLane="best" departPos="free" departSpeed="last"/>
    <flow id ="f_161" type = "phMotor" begin="7200.00" route="kuf-10c_to_ka-4" end="10800.00" number="303" departLane="best" departPos="free" departSpeed="last"/>
    <flow id ="f_162" type = "phCar" begin="7200.00" route="kuf-10c_to_ka-4" end="10800.00" number="202" departLane="best" departPos="free" departSpeed="last"/>
    <flow id ="f_163" type = "phMotor" begin="7200.00" route="kuf-10c_to_ka-6" end="10800.00" number="14" departLane="best" departPos="free" departSpeed="last"/>
    <flow id ="f_164" type = "phCar" begin="7200.00" route="kuf-10c_to_ka-6" end="10800.00" number="9" departLane="best" departPos="free" departSpeed="last"/>