<?xml version="1.0" encoding="UTF-8"?>

<!-- generated on 2025-03-13 15:13:07 by Eclipse SUMO netedit Version 1.19.0
-->

<additional xmlns:xsi="http://www.w3.org/2001/XMLSchema-instance" xsi:noNamespaceSchemaLocation="http://sumo.dlr.de/xsd/additional_file.xsd">
    <!-- Detectors -->
    <laneAreaDetector id="e2_0" lane="L1_4" pos="0.00" length="383.00" period="300.00" file="e2_0.xml" friendlyPos="1"/>
    <laneAreaDetector id="e2_1" lane="L1_3" pos="0.00" length="383.00" period="300.00" file="e2_1.xml" friendlyPos="1"/>
    <laneAreaDetector id="e2_10" lane="R3_1" pos="0.00" length="47.00" period="300.00" file="e2_10.xml"/>
    <laneAreaDetector id="e2_11" lane="R3_2" pos="0.00" length="47.00" period="300.00" file="e2_11.xml"/>
    <laneAreaDetector id="e2_12" lane="R3_3" pos="0.00" length="47.00" period="300.00" file="e2_12.xml"/>
    <laneAreaDetector id="e2_13" lane="R4_0" pos="0.00" length="160.00" period="300.00" file="e2_13.xml"/>
    <laneAreaDetector id="e2_14" lane="R4_1" pos="0.00" length="160.00" period="300.00" file="e2_14.xml"/>
    <laneAreaDetector id="e2_15" lane="R4_2" pos="0.00" length="160.00" period="300.00" file="e2_15.xml"/>
    <laneAreaDetector id="e2_16" lane="L2_4" pos="0.00" length="215.00" period="300.00" file="e2_16.xml"/>
    <laneAreaDetector id="e2_17" lane="L2_3" pos="0.00" length="215.00" period="300.00" file="e2_17.xml"/>
    <laneAreaDetector id="e2_18" lane="L2_2" pos="0.00" length="215.00" period="300.00" file="e2_18.xml"/>
    <laneAreaDetector id="e2_19" lane="L2_1" pos="0.00" length="215.00" period="300.00" file="e2_19.xml"/>
    <laneAreaDetector id="e2_2" lane="L1_2" pos="0.00" length="383.00" period="300.00" file="e2_2.xml" friendlyPos="1"/>
    <laneAreaDetector id="e2_20" lane="L2_0" pos="0.00" length="215.00" period="300.00" file="e2_20.xml"/>
    <laneAreaDetector id="e2_21" lane="univ_road-upper_in_0" pos="0.00" length="266.00" period="300.00" file="e2_21.xml"/>
    <laneAreaDetector id="e2_22" lane="univ_road-lower_in_0" pos="0.00" length="274.00" period="300.00" file="e2_22.xml"/>
    <laneAreaDetector id="e2_23" lane="f.dela_rosa-road_0" pos="0.00" length="256.00" period="300.00" file="e2_23.xml"/>
    <laneAreaDetector id="e2_24" lane="f.dela_rosa-road_1" pos="0.00" length="256.00" period="300.00" file="e2_24.xml"/>
    <laneAreaDetector id="e2_25" lane="R5_0" pos="0.00" length="464.00" period="300.00" file="e2_25.xml"/>
    <laneAreaDetector id="e2_26" lane="R5_1" pos="0.00" length="464.00" period="300.00" file="e2_26.xml"/>
    <laneAreaDetector id="e2_27" lane="R5_2" pos="0.00" length="464.00" period="300.00" file="e2_27.xml"/>
    <laneAreaDetector id="e2_28" lane="L3_0" pos="0.00" length="551.00" period="300.00" file="e2_28.xml"/>
    <laneAreaDetector id="e2_29" lane="L3_1" pos="0.00" length="551.00" period="300.00" file="e2_29.xml"/>
    <laneAreaDetector id="e2_3" lane="L1_1" pos="0.00" length="383.00" period="300.00" file="e2_3.xml" friendlyPos="1"/>
    <laneAreaDetector id="e2_30" lane="L3_2" pos="0.00" length="551.00" period="300.00" file="e2_30.xml"/>
    <laneAreaDetector id="e2_31" lane="L3_3" pos="0.00" length="551.00" period="300.00" file="e2_31.xml"/>
    <laneAreaDetector id="e2_32" lane="L3_4" pos="0.00" length="551.00" period="300.00" file="e2_32.xml"/>
    <laneAreaDetector id="e2_33" lane="L4_1" pos="0.00" length="166.00" period="300.00" file="e2_33.xml"/>
    <laneAreaDetector id="e2_34" lane="L4_0" pos="0.00" length="166.00" period="300.00" file="e2_34.xml"/>
    <laneAreaDetector id="e2_35" lane="L5_2" pos="0.00" length="190.00" period="300.00" file="e2_35.xml"/>
    <laneAreaDetector id="e2_36" lane="L5_1" pos="0.00" length="190.00" period="300.00" file="e2_36.xml"/>
    <laneAreaDetector id="e2_37" lane="L5_0" pos="0.00" length="190.00" period="300.00" file="e2_37.xml"/>
    <laneAreaDetector id="e2_38" lane="R6_0" pos="0.00" length="464.00" period="300.00" file="e2_38.xml"/>
    <laneAreaDetector id="e2_39" lane="R6_1" pos="0.00" length="464.00" period="300.00" file="e2_39.xml"/>
    <laneAreaDetector id="e2_4" lane="L1_0" pos="0.00" length="383.00" period="300.00" file="e2_4.xml" friendlyPos="1"/>
    <laneAreaDetector id="e2_40" lane="R7_0" pos="0.00" length="168.00" period="300.00" file="e2_40.xml"/>
    <laneAreaDetector id="e2_41" lane="R7_1" pos="0.00" length="168.00" period="300.00" file="e2_41.xml"/>
    <laneAreaDetector id="e2_42" lane="aurora-upper_in_0" pos="0.00" length="232.00" period="300.00" file="e2_42.xml"/>
    <laneAreaDetector id="e2_43" lane="aurora-upper_in_1" pos="0.00" length="232.00" period="300.00" file="e2_43.xml"/>
    <laneAreaDetector id="e2_44" lane="aurora-upper_in_2" pos="0.00" length="232.00" period="300.00" file="e2_44.xml"/>
    <laneAreaDetector id="e2_45" lane="aurora-upper_in_3" pos="0.00" length="232.00" period="300.00" file="e2_45.xml"/>
    <laneAreaDetector id="e2_46" lane="aurora-lower_in_0" pos="0.00" length="244.00" period="300.00" file="e2_46.xml"/>
    <laneAreaDetector id="e2_47" lane="aurora-lower_in_1" pos="0.00" length="244.00" period="300.00" file="e2_47.xml"/>
    <laneAreaDetector id="e2_48" lane="aurora-lower_in_2" pos="0.00" length="244.00" period="300.00" file="e2_48.xml"/>
    <laneAreaDetector id="e2_49" lane="aurora-lower_in_3" pos="0.00" length="244.00" period="300.00" file="e2_49.xml"/>
    <laneAreaDetector id="e2_5" lane="thornton_drive-extension-in_0" pos="0.00" length="104.00" period="300.00" file="e2_5.xml"/>
    <laneAreaDetector id="e2_6" lane="b.gonzales-road-in_0" pos="0.00" length="130.00" period="300.00" file="e2_6.xml"/>
    <laneAreaDetector id="e2_7" lane="thornton_drive-upper_in_0" pos="0.00" length="50.00" period="300.00" file="e2_7.xml"/>
    <laneAreaDetector id="e2_8" lane="thornton_drive-lower_in_0" pos="0.00" length="44.00" period="300.00" file="e2_8.xml"/>
    <laneAreaDetector id="e2_9" lane="R3_0" pos="0.00" length="47.00" period="300.00" file="e2_9.xml"/>
</additional>
