<routes>
   
    <!-- Define vehicle type -->
    <vType length="4.425" width="1.1"  id="phCar" minGap="0.4" speedFactor="normc(1,0.1,0.2,2)" vClass="passenger" sigma="0.4" color="0,255,0"/>
    <vType length="1.5" width="0.5" id="phMotor" minGap="0.2" speedFactor="normc(1.00,0.00)" vClass="motorcycle" sigma="0.15" color="0,0,255"/>

    <!-- Define routes -->
    <route id="ka-1" edges="R7 aurora-mid_int aurora-upper_out"/>
    <route id="ka-4" edges="L5 L6 aurora-lower_out"/>
    <route id="ka-6" edges="L5 katip-aurora-curve aurora-upper_out"/>
    <route id="ka-8" edges="aurora-lower_in aurora-lower_out"/>
    <route id="ka-10" edges="aurora-upper_in L7"/>
    <route id="ka-11" edges="aurora-upper_in aurora-mid_int aurora-upper_out"/>
    <route id="ka-12" edges="aurora-upper_in R6"/>
    <route id="kuf-2" edges="R5 R4"/>
    <route id="kuf-3" edges="R5 univ_road-lower_out"/>
    <route id="kuf-3a" edges="R5 univ_road-upper_out"/>
    <route id="kuf-4" edges="L2 univ_road-lower_out"/>
    <route id="kuf-4a" edges="L2 R4"/>
    <route id="kuf-4b" edges="L2 univ_road-upper_out"/>
    <route id="kuf-5" edges="L2 L3"/>
    <route id="kuf-7" edges="f.dela_rosa-road R4"/>
    <route id="kuf-8" edges="f.dela_rosa-road univ_road-lower_out"/>
    <route id="kuf-8a" edges="f.dela_rosa-road univ_road-upper_out"/>
    <route id="kuf-9" edges="f.dela_rosa-road L3"/>
    <route id="kuf-10b" edges="univ_road-lower_in L3"/>
    <route id="kuf-10c" edges="univ_road-upper_in L3"/>
    <route id="kuf-12a" edges="univ_road-upper_in R4"/>
    <route id="kbt-2" edges="R3 R2 R1"/>
    <route id="kbt-3" edges="R3 thornton_drive-out thornton_drive-extension-out"/>
    <route id="kbt-4" edges="L1 thornton_drive-out thornton_drive-extension-out"/>
    <route id="kbt-4a" edges="L1 R2 R1"/>
    <route id="kbt-5" edges="L1 L2"/>
    <route id="kbt-6" edges="L1 b.gonzales-road-out"/>
    <route id="kbt-7" edges="b.gonzales-road-in R2 R1"/>
    <route id="kbt-8" edges="b.gonzales-road-in thornton_drive-out thornton_drive-extension-out"/>
    <route id="kbt-9" edges="b.gonzales-road-in L2"/>
    <route id="kbt-10" edges="thornton_drive-upper_in L2"/>
    <route id="kbt-11" edges="thornton_drive-upper_in b.gonzales-road-out"/>
    <route id="kbt-12" edges="thornton_drive-upper_in R2 R1"/>

    <route id="ka-12_to_kuf-2" edges="aurora-upper_in R6 R5 R4"/>
    <route id="ka-12_to_kuf-3" edges="aurora-upper_in R6 R5 univ_road-lower_out"/>
    <route id="ka-12_to_kuf-3a" edges="aurora-upper_in R6 R5 univ_road-upper_out"/>
    <route id="kuf-7_to_kbt-2" edges="f.dela_rosa-road R4 R3 R2 R1"/>
    <route id="kuf-7_to_kbt-3" edges="f.dela_rosa-road R4 R3 thornton_drive-out thornton_drive-extension-out"/>
    <route id="kuf-9_to_ka-4" edges="f.dela_rosa-road L3 L4 L5 L6 aurora-lower_out"/>
    <route id="kuf-9_to_ka-6" edges="f.dela_rosa-road L3 L4 L5 katip-aurora-curve aurora-upper_out"/>
    <route id="kuf-10b_to_ka-4" edges="univ_road-lower_in L3 L4 L5 L6 aurora-lower_out"/>
    <route id="kuf-10b_to_ka-6" edges="univ_road-lower_in L3 L4 L5 katip-aurora-curve aurora-upper_out"/>
    <route id="kuf-10c_to_ka-4" edges="univ_road-upper_in L3 L4 L5 L6 aurora-lower_out"/>
    <route id="kuf-10c_to_ka-6" edges="univ_road-upper_in L3 L4 L5 katip-aurora-curve aurora-upper_out"/>
    <route id="kbt-5_to_kuf-4" edges="L1 L2 univ_road-lower_out"/>
    <route id="kbt-5_to_kuf-4a_to_kbt-2" edges="L1 L2 R4 R3 R2 R1"/>
    <route id="kbt-5_to_kuf-4a_to_kbt-3" edges="L1 L2 R4 R3 thornton_drive-out thornton_drive-extension-out"/>
    <route id="kbt-5_to_kuf-4b" edges="L1 L2 univ_road-upper_out"/>
    <route id="kbt-5_to_kuf-5" edges="L1 L2 L3"/>
    <route id="kbt-9_to_kuf-4" edges="b.gonzales-road-in L2 univ_road-lower_out"/>
    <route id="kbt-9_to_kuf-4b" edges="b.gonzales-road-in L2 univ_road-upper_out"/>
    <route id="kbt-9_to_kuf-5" edges="b.gonzales-road-in L2 L3"/>
    <route id="kbt-10_to_kuf-4" edges="thornton_drive-upper_in L2 univ_road-lower_out"/>
    <route id="kbt-10_to_kuf-4b" edges="thornton_drive-upper_in L2 univ_road-upper_out"/>
    <route id="kbt-10_to_kuf-5" edges="thornton_drive-upper_in L2 L3"/>
    
    <!-- Define flows (created in distribute-profile.py) -->
    <flow id ="f_0" type = "phMotor" begin="0.00" route="ka-1" end="3600.00" number="341"/>
    <flow id ="f_1" type = "phCar" begin="0.00" route="ka-1" end="3600.00" number="228"/>
    <flow id ="f_2" type = "phMotor" begin="0.00" route="ka-8" end="3600.00" number="1178"/>
    <flow id ="f_3" type = "phCar" begin="0.00" route="ka-8" end="3600.00" number="785"/>
    <flow id ="f_4" type = "phMotor" begin="0.00" route="ka-10" end="3600.00" number="460"/>
    <flow id ="f_5" type = "phCar" begin="0.00" route="ka-10" end="3600.00" number="307"/>
    <flow id ="f_6" type = "phMotor" begin="0.00" route="ka-11" end="3600.00" number="1892"/>
    <flow id ="f_7" type = "phCar" begin="0.00" route="ka-11" end="3600.00" number="1261"/>
    <flow id ="f_8" type = "phMotor" begin="0.00" route="ka-12_to_kuf-2" end="3600.00" number="2404"/>
    <flow id ="f_9" type = "phCar" begin="0.00" route="ka-12_to_kuf-2" end="3600.00" number="1603"/>
    <flow id ="f_10" type = "phMotor" begin="0.00" route="ka-12_to_kuf-3" end="3600.00" number="155"/>
    <flow id ="f_11" type = "phCar" begin="0.00" route="ka-12_to_kuf-3" end="3600.00" number="104"/>
    <flow id ="f_12" type = "phMotor" begin="0.00" route="ka-12_to_kuf-3a" end="3600.00" number="17"/>
    <flow id ="f_13" type = "phCar" begin="0.00" route="ka-12_to_kuf-3a" end="3600.00" number="12"/>
    <flow id ="f_14" type = "phMotor" begin="0.00" route="kuf-7_to_kbt-2" end="3600.00" number="107"/>
    <flow id ="f_15" type = "phCar" begin="0.00" route="kuf-7_to_kbt-2" end="3600.00" number="72"/>
    <flow id ="f_16" type = "phMotor" begin="0.00" route="kuf-7_to_kbt-3" end="3600.00" number="1"/>
    <flow id ="f_17" type = "phCar" begin="0.00" route="kuf-7_to_kbt-3" end="3600.00" number="1"/>
    <flow id ="f_18" type = "phMotor" begin="0.00" route="kuf-8" end="3600.00" number="64"/>
    <flow id ="f_19" type = "phCar" begin="0.00" route="kuf-8" end="3600.00" number="43"/>
    <flow id ="f_20" type = "phMotor" begin="0.00" route="kuf-8a" end="3600.00" number="62"/>
    <flow id ="f_21" type = "phCar" begin="0.00" route="kuf-8a" end="3600.00" number="42"/>
    <flow id ="f_22" type = "phMotor" begin="0.00" route="kuf-9_to_ka-4" end="3600.00" number="62"/>
    <flow id ="f_23" type = "phCar" begin="0.00" route="kuf-9_to_ka-4" end="3600.00" number="42"/>
    <flow id ="f_24" type = "phMotor" begin="0.00" route="kuf-9_to_ka-6" end="3600.00" number="3"/>
    <flow id ="f_25" type = "phCar" begin="0.00" route="kuf-9_to_ka-6" end="3600.00" number="2"/>
    <flow id ="f_26" type = "phMotor" begin="0.00" route="kuf-10b_to_ka-4" end="3600.00" number="157"/>
    <flow id ="f_27" type = "phCar" begin="0.00" route="kuf-10b_to_ka-4" end="3600.00" number="104"/>
    <flow id ="f_28" type = "phMotor" begin="0.00" route="kuf-10b_to_ka-6" end="3600.00" number="7"/>
    <flow id ="f_29" type = "phCar" begin="0.00" route="kuf-10b_to_ka-6" end="3600.00" number="5"/>
    <flow id ="f_30" type = "phMotor" begin="0.00" route="kuf-10c_to_ka-4" end="3600.00" number="399"/>
    <flow id ="f_31" type = "phCar" begin="0.00" route="kuf-10c_to_ka-4" end="3600.00" number="266"/>
    <flow id ="f_32" type = "phMotor" begin="0.00" route="kuf-10c_to_ka-6" end="3600.00" number="19"/>
    <flow id ="f_33" type = "phCar" begin="0.00" route="kuf-10c_to_ka-6" end="3600.00" number="12"/>
    <flow id ="f_34" type = "phMotor" begin="0.00" route="kbt-4" end="3600.00" number="29"/>
    <flow id ="f_35" type = "phCar" begin="0.00" route="kbt-4" end="3600.00" number="20"/>
    <flow id ="f_36" type = "phMotor" begin="0.00" route="kbt-4a" end="3600.00" number="271"/>
    <flow id ="f_37" type = "phCar" begin="0.00" route="kbt-4a" end="3600.00" number="180"/>
    <flow id ="f_38" type = "phMotor" begin="0.00" route="kbt-5_to_kuf-4" end="3600.00" number="82"/>
    <flow id ="f_39" type = "phCar" begin="0.00" route="kbt-5_to_kuf-4" end="3600.00" number="55"/>
    <flow id ="f_40" type = "phMotor" begin="0.00" route="kbt-5_to_kuf-4a_to_kbt-3" end="3600.00" number="2"/>
    <flow id ="f_41" type = "phCar" begin="0.00" route="kbt-5_to_kuf-4a_to_kbt-3" end="3600.00" number="2"/>
    <flow id ="f_42" type = "phMotor" begin="0.00" route="kbt-5_to_kuf-4b" end="3600.00" number="71"/>
    <flow id ="f_43" type = "phCar" begin="0.00" route="kbt-5_to_kuf-4b" end="3600.00" number="47"/>
    <flow id ="f_44" type = "phMotor" begin="0.00" route="kbt-5_to_kuf-5" end="3600.00" number="2927"/>
    <flow id ="f_45" type = "phCar" begin="0.00" route="kbt-5_to_kuf-5" end="3600.00" number="1951"/>
    <flow id ="f_46" type = "phMotor" begin="0.00" route="kbt-6" end="3600.00" number="373"/>
    <flow id ="f_47" type = "phCar" begin="0.00" route="kbt-6" end="3600.00" number="249"/>
    <flow id ="f_48" type = "phMotor" begin="0.00" route="kbt-7" end="3600.00" number="407"/>
    <flow id ="f_49" type = "phCar" begin="0.00" route="kbt-7" end="3600.00" number="272"/>
    <flow id ="f_50" type = "phMotor" begin="0.00" route="kbt-8" end="3600.00" number="8"/>
    <flow id ="f_51" type = "phCar" begin="0.00" route="kbt-8" end="3600.00" number="6"/>
    <flow id ="f_52" type = "phMotor" begin="0.00" route="kbt-9_to_kuf-4" end="3600.00" number="1"/>
    <flow id ="f_53" type = "phMotor" begin="0.00" route="kbt-9_to_kuf-4b" end="3600.00" number="1"/>
    <flow id ="f_54" type = "phMotor" begin="0.00" route="kbt-9_to_kuf-5" end="3600.00" number="19"/>
    <flow id ="f_55" type = "phCar" begin="0.00" route="kbt-9_to_kuf-5" end="3600.00" number="12"/>
    <flow id ="f_56" type = "phMotor" begin="0.00" route="kbt-10_to_kuf-4" end="3600.00" number="2"/>
    <flow id ="f_57" type = "phCar" begin="0.00" route="kbt-10_to_kuf-4" end="3600.00" number="2"/>
    <flow id ="f_58" type = "phMotor" begin="0.00" route="kbt-10_to_kuf-4b" end="3600.00" number="2"/>
    <flow id ="f_59" type = "phCar" begin="0.00" route="kbt-10_to_kuf-4b" end="3600.00" number="1"/>
    <flow id ="f_60" type = "phMotor" begin="0.00" route="kbt-10_to_kuf-5" end="3600.00" number="79"/>
    <flow id ="f_61" type = "phCar" begin="0.00" route="kbt-10_to_kuf-5" end="3600.00" number="52"/>
    <flow id ="f_62" type = "phMotor" begin="0.00" route="kbt-11" end="3600.00" number="18"/>
    <flow id ="f_63" type = "phCar" begin="0.00" route="kbt-11" end="3600.00" number="12"/>
    <flow id ="f_64" type = "phMotor" begin="0.00" route="kbt-12" end="3600.00" number="7"/>
    <flow id ="f_65" type = "phCar" begin="0.00" route="kbt-12" end="3600.00" number="4"/>
    <flow id ="f_66" type = "phMotor" begin="3600.00" route="ka-1" end="7200.00" number="384"/>
    <flow id ="f_67" type = "phCar" begin="3600.00" route="ka-1" end="7200.00" number="256"/>
    <flow id ="f_68" type = "phMotor" begin="3600.00" route="ka-8" end="7200.00" number="1323"/>
    <flow id ="f_69" type = "phCar" begin="3600.00" route="ka-8" end="7200.00" number="882"/>
    <flow id ="f_70" type = "phMotor" begin="3600.00" route="ka-10" end="7200.00" number="517"/>
    <flow id ="f_71" type = "phCar" begin="3600.00" route="ka-10" end="7200.00" number="345"/>
    <flow id ="f_72" type = "phMotor" begin="3600.00" route="ka-11" end="7200.00" number="2126"/>
    <flow id ="f_73" type = "phCar" begin="3600.00" route="ka-11" end="7200.00" number="1417"/>
    <flow id ="f_74" type = "phMotor" begin="3600.00" route="ka-12_to_kuf-2" end="7200.00" number="2702"/>
    <flow id ="f_75" type = "phCar" begin="3600.00" route="ka-12_to_kuf-2" end="7200.00" number="1801"/>
    <flow id ="f_76" type = "phMotor" begin="3600.00" route="ka-12_to_kuf-3" end="7200.00" number="175"/>
    <flow id ="f_77" type = "phCar" begin="3600.00" route="ka-12_to_kuf-3" end="7200.00" number="116"/>
    <flow id ="f_78" type = "phMotor" begin="3600.00" route="ka-12_to_kuf-3a" end="7200.00" number="19"/>
    <flow id ="f_79" type = "phCar" begin="3600.00" route="ka-12_to_kuf-3a" end="7200.00" number="13"/>
    <flow id ="f_80" type = "phMotor" begin="3600.00" route="kuf-7_to_kbt-2" end="7200.00" number="121"/>
    <flow id ="f_81" type = "phCar" begin="3600.00" route="kuf-7_to_kbt-2" end="7200.00" number="80"/>
    <flow id ="f_82" type = "phMotor" begin="3600.00" route="kuf-7_to_kbt-3" end="7200.00" number="1"/>
    <flow id ="f_83" type = "phCar" begin="3600.00" route="kuf-7_to_kbt-3" end="7200.00" number="1"/>
    <flow id ="f_84" type = "phMotor" begin="3600.00" route="kuf-8" end="7200.00" number="72"/>
    <flow id ="f_85" type = "phCar" begin="3600.00" route="kuf-8" end="7200.00" number="48"/>
    <flow id ="f_86" type = "phMotor" begin="3600.00" route="kuf-8a" end="7200.00" number="70"/>
    <flow id ="f_87" type = "phCar" begin="3600.00" route="kuf-8a" end="7200.00" number="47"/>
    <flow id ="f_88" type = "phMotor" begin="3600.00" route="kuf-9_to_ka-4" end="7200.00" number="70"/>
    <flow id ="f_89" type = "phCar" begin="3600.00" route="kuf-9_to_ka-4" end="7200.00" number="47"/>
    <flow id ="f_90" type = "phMotor" begin="3600.00" route="kuf-9_to_ka-6" end="7200.00" number="3"/>
    <flow id ="f_91" type = "phCar" begin="3600.00" route="kuf-9_to_ka-6" end="7200.00" number="2"/>
    <flow id ="f_92" type = "phMotor" begin="3600.00" route="kuf-10b_to_ka-4" end="7200.00" number="176"/>
    <flow id ="f_93" type = "phCar" begin="3600.00" route="kuf-10b_to_ka-4" end="7200.00" number="117"/>
    <flow id ="f_94" type = "phMotor" begin="3600.00" route="kuf-10b_to_ka-6" end="7200.00" number="8"/>
    <flow id ="f_95" type = "phCar" begin="3600.00" route="kuf-10b_to_ka-6" end="7200.00" number="6"/>
    <flow id ="f_96" type = "phMotor" begin="3600.00" route="kuf-10c_to_ka-4" end="7200.00" number="448"/>
    <flow id ="f_97" type = "phCar" begin="3600.00" route="kuf-10c_to_ka-4" end="7200.00" number="299"/>
    <flow id ="f_98" type = "phMotor" begin="3600.00" route="kuf-10c_to_ka-6" end="7200.00" number="21"/>
    <flow id ="f_99" type = "phCar" begin="3600.00" route="kuf-10c_to_ka-6" end="7200.00" number="14"/>
    <flow id ="f_100" type = "phMotor" begin="3600.00" route="kbt-4" end="7200.00" number="33"/>
    <flow id ="f_101" type = "phCar" begin="3600.00" route="kbt-4" end="7200.00" number="22"/>
    <flow id ="f_102" type = "phMotor" begin="3600.00" route="kbt-4a" end="7200.00" number="304"/>
    <flow id ="f_103" type = "phCar" begin="3600.00" route="kbt-4a" end="7200.00" number="203"/>
    <flow id ="f_104" type = "phMotor" begin="3600.00" route="kbt-5_to_kuf-4" end="7200.00" number="93"/>
    <flow id ="f_105" type = "phCar" begin="3600.00" route="kbt-5_to_kuf-4" end="7200.00" number="62"/>
    <flow id ="f_106" type = "phMotor" begin="3600.00" route="kbt-5_to_kuf-4a_to_kbt-2" end="7200.00" number="2"/>
    <flow id ="f_107" type = "phCar" begin="3600.00" route="kbt-5_to_kuf-4a_to_kbt-2" end="7200.00" number="1"/>
    <flow id ="f_108" type = "phMotor" begin="3600.00" route="kbt-5_to_kuf-4a_to_kbt-3" end="7200.00" number="1"/>
    <flow id ="f_109" type = "phMotor" begin="3600.00" route="kbt-5_to_kuf-4b" end="7200.00" number="80"/>
    <flow id ="f_110" type = "phCar" begin="3600.00" route="kbt-5_to_kuf-4b" end="7200.00" number="53"/>
    <flow id ="f_111" type = "phMotor" begin="3600.00" route="kbt-5_to_kuf-5" end="7200.00" number="3289"/>
    <flow id ="f_112" type = "phCar" begin="3600.00" route="kbt-5_to_kuf-5" end="7200.00" number="2192"/>
    <flow id ="f_113" type = "phMotor" begin="3600.00" route="kbt-6" end="7200.00" number="419"/>
    <flow id ="f_114" type = "phCar" begin="3600.00" route="kbt-6" end="7200.00" number="280"/>
    <flow id ="f_115" type = "phMotor" begin="3600.00" route="kbt-7" end="7200.00" number="458"/>
    <flow id ="f_116" type = "phCar" begin="3600.00" route="kbt-7" end="7200.00" number="305"/>
    <flow id ="f_117" type = "phMotor" begin="3600.00" route="kbt-8" end="7200.00" number="10"/>
    <flow id ="f_118" type = "phCar" begin="3600.00" route="kbt-8" end="7200.00" number="6"/>
    <flow id ="f_119" type = "phMotor" begin="3600.00" route="kbt-9_to_kuf-4" end="7200.00" number="1"/>
    <flow id ="f_120" type = "phMotor" begin="3600.00" route="kbt-9_to_kuf-4b" end="7200.00" number="1"/>
    <flow id ="f_121" type = "phMotor" begin="3600.00" route="kbt-9_to_kuf-5" end="7200.00" number="21"/>
    <flow id ="f_122" type = "phCar" begin="3600.00" route="kbt-9_to_kuf-5" end="7200.00" number="14"/>
    <flow id ="f_123" type = "phMotor" begin="3600.00" route="kbt-10_to_kuf-4" end="7200.00" number="2"/>
    <flow id ="f_124" type = "phCar" begin="3600.00" route="kbt-10_to_kuf-4" end="7200.00" number="2"/>
    <flow id ="f_125" type = "phMotor" begin="3600.00" route="kbt-10_to_kuf-4b" end="7200.00" number="2"/>
    <flow id ="f_126" type = "phCar" begin="3600.00" route="kbt-10_to_kuf-4b" end="7200.00" number="2"/>
    <flow id ="f_127" type = "phMotor" begin="3600.00" route="kbt-10_to_kuf-5" end="7200.00" number="88"/>
    <flow id ="f_128" type = "phCar" begin="3600.00" route="kbt-10_to_kuf-5" end="7200.00" number="59"/>
    <flow id ="f_129" type = "phMotor" begin="3600.00" route="kbt-11" end="7200.00" number="20"/>
    <flow id ="f_130" type = "phCar" begin="3600.00" route="kbt-11" end="7200.00" number="14"/>
    <flow id ="f_131" type = "phMotor" begin="3600.00" route="kbt-12" end="7200.00" number="7"/>
    <flow id ="f_132" type = "phCar" begin="3600.00" route="kbt-12" end="7200.00" number="5"/>
    <flow id ="f_133" type = "phMotor" begin="7200.00" route="ka-1" end="10800.00" number="371"/>
    <flow id ="f_134" type = "phCar" begin="7200.00" route="ka-1" end="10800.00" number="248"/>
    <flow id ="f_135" type = "phMotor" begin="7200.00" route="ka-8" end="10800.00" number="1280"/>
    <flow id ="f_136" type = "phCar" begin="7200.00" route="ka-8" end="10800.00" number="854"/>
    <flow id ="f_137" type = "phMotor" begin="7200.00" route="ka-10" end="10800.00" number="500"/>
    <flow id ="f_138" type = "phCar" begin="7200.00" route="ka-10" end="10800.00" number="334"/>
    <flow id ="f_139" type = "phMotor" begin="7200.00" route="ka-11" end="10800.00" number="2057"/>
    <flow id ="f_140" type = "phCar" begin="7200.00" route="ka-11" end="10800.00" number="1372"/>
    <flow id ="f_141" type = "phMotor" begin="7200.00" route="ka-12_to_kuf-2" end="10800.00" number="2615"/>
    <flow id ="f_142" type = "phCar" begin="7200.00" route="ka-12_to_kuf-2" end="10800.00" number="1743"/>
    <flow id ="f_143" type = "phMotor" begin="7200.00" route="ka-12_to_kuf-3" end="10800.00" number="169"/>
    <flow id ="f_144" type = "phCar" begin="7200.00" route="ka-12_to_kuf-3" end="10800.00" number="113"/>
    <flow id ="f_145" type = "phMotor" begin="7200.00" route="ka-12_to_kuf-3a" end="10800.00" number="19"/>
    <flow id ="f_146" type = "phCar" begin="7200.00" route="ka-12_to_kuf-3a" end="10800.00" number="12"/>
    <flow id ="f_147" type = "phMotor" begin="7200.00" route="kuf-7_to_kbt-2" end="10800.00" number="117"/>
    <flow id ="f_148" type = "phCar" begin="7200.00" route="kuf-7_to_kbt-2" end="10800.00" number="78"/>
    <flow id ="f_149" type = "phMotor" begin="7200.00" route="kuf-7_to_kbt-3" end="10800.00" number="1"/>
    <flow id ="f_150" type = "phCar" begin="7200.00" route="kuf-7_to_kbt-3" end="10800.00" number="1"/>
    <flow id ="f_151" type = "phMotor" begin="7200.00" route="kuf-8" end="10800.00" number="70"/>
    <flow id ="f_152" type = "phCar" begin="7200.00" route="kuf-8" end="10800.00" number="46"/>
    <flow id ="f_153" type = "phMotor" begin="7200.00" route="kuf-8a" end="10800.00" number="68"/>
    <flow id ="f_154" type = "phCar" begin="7200.00" route="kuf-8a" end="10800.00" number="45"/>
    <flow id ="f_155" type = "phMotor" begin="7200.00" route="kuf-9_to_ka-4" end="10800.00" number="68"/>
    <flow id ="f_156" type = "phCar" begin="7200.00" route="kuf-9_to_ka-4" end="10800.00" number="45"/>
    <flow id ="f_157" type = "phMotor" begin="7200.00" route="kuf-9_to_ka-6" end="10800.00" number="3"/>
    <flow id ="f_158" type = "phCar" begin="7200.00" route="kuf-9_to_ka-6" end="10800.00" number="2"/>
    <flow id ="f_159" type = "phMotor" begin="7200.00" route="kuf-10b_to_ka-4" end="10800.00" number="170"/>
    <flow id ="f_160" type = "phCar" begin="7200.00" route="kuf-10b_to_ka-4" end="10800.00" number="114"/>
    <flow id ="f_161" type = "phMotor" begin="7200.00" route="kuf-10b_to_ka-6" end="10800.00" number="8"/>
    <flow id ="f_162" type = "phCar" begin="7200.00" route="kuf-10b_to_ka-6" end="10800.00" number="5"/>
    <flow id ="f_163" type = "phMotor" begin="7200.00" route="kuf-10c_to_ka-4" end="10800.00" number="434"/>
    <flow id ="f_164" type = "phCar" begin="7200.00" route="kuf-10c_to_ka-4" end="10800.00" number="290"/>
    <flow id ="f_165" type = "phMotor" begin="7200.00" route="kuf-10c_to_ka-6" end="10800.00" number="20"/>
    <flow id ="f_166" type = "phCar" begin="7200.00" route="kuf-10c_to_ka-6" end="10800.00" number="13"/>
    <flow id ="f_167" type = "phMotor" begin="7200.00" route="kbt-4" end="10800.00" number="32"/>
    <flow id ="f_168" type = "phCar" begin="7200.00" route="kbt-4" end="10800.00" number="21"/>
    <flow id ="f_169" type = "phMotor" begin="7200.00" route="kbt-4a" end="10800.00" number="294"/>
    <flow id ="f_170" type = "phCar" begin="7200.00" route="kbt-4a" end="10800.00" number="196"/>
    <flow id ="f_171" type = "phMotor" begin="7200.00" route="kbt-5_to_kuf-4" end="10800.00" number="90"/>
    <flow id ="f_172" type = "phCar" begin="7200.00" route="kbt-5_to_kuf-4" end="10800.00" number="60"/>
    <flow id ="f_173" type = "phMotor" begin="7200.00" route="kbt-5_to_kuf-4a_to_kbt-2" end="10800.00" number="1"/>
    <flow id ="f_174" type = "phMotor" begin="7200.00" route="kbt-5_to_kuf-4a_to_kbt-3" end="10800.00" number="2"/>
    <flow id ="f_175" type = "phCar" begin="7200.00" route="kbt-5_to_kuf-4a_to_kbt-3" end="10800.00" number="1"/>
    <flow id ="f_176" type = "phMotor" begin="7200.00" route="kbt-5_to_kuf-4b" end="10800.00" number="77"/>
    <flow id ="f_177" type = "phCar" begin="7200.00" route="kbt-5_to_kuf-4b" end="10800.00" number="51"/>
    <flow id ="f_178" type = "phMotor" begin="7200.00" route="kbt-5_to_kuf-5" end="10800.00" number="3182"/>
    <flow id ="f_179" type = "phCar" begin="7200.00" route="kbt-5_to_kuf-5" end="10800.00" number="2122"/>
    <flow id ="f_180" type = "phMotor" begin="7200.00" route="kbt-6" end="10800.00" number="406"/>
    <flow id ="f_181" type = "phCar" begin="7200.00" route="kbt-6" end="10800.00" number="270"/>
    <flow id ="f_182" type = "phMotor" begin="7200.00" route="kbt-7" end="10800.00" number="443"/>
    <flow id ="f_183" type = "phCar" begin="7200.00" route="kbt-7" end="10800.00" number="296"/>
    <flow id ="f_184" type = "phMotor" begin="7200.00" route="kbt-8" end="10800.00" number="9"/>
    <flow id ="f_185" type = "phCar" begin="7200.00" route="kbt-8" end="10800.00" number="6"/>
    <flow id ="f_186" type = "phMotor" begin="7200.00" route="kbt-9_to_kuf-4" end="10800.00" number="1"/>
    <flow id ="f_187" type = "phMotor" begin="7200.00" route="kbt-9_to_kuf-4b" end="10800.00" number="1"/>
    <flow id ="f_188" type = "phMotor" begin="7200.00" route="kbt-9_to_kuf-5" end="10800.00" number="20"/>
    <flow id ="f_189" type = "phCar" begin="7200.00" route="kbt-9_to_kuf-5" end="10800.00" number="14"/>
    <flow id ="f_190" type = "phMotor" begin="7200.00" route="kbt-10_to_kuf-4" end="10800.00" number="2"/>
    <flow id ="f_191" type = "phCar" begin="7200.00" route="kbt-10_to_kuf-4" end="10800.00" number="2"/>
    <flow id ="f_192" type = "phMotor" begin="7200.00" route="kbt-10_to_kuf-4b" end="10800.00" number="2"/>
    <flow id ="f_193" type = "phCar" begin="7200.00" route="kbt-10_to_kuf-4b" end="10800.00" number="1"/>
    <flow id ="f_194" type = "phMotor" begin="7200.00" route="kbt-10_to_kuf-5" end="10800.00" number="85"/>
    <flow id ="f_195" type = "phCar" begin="7200.00" route="kbt-10_to_kuf-5" end="10800.00" number="57"/>
    <flow id ="f_196" type = "phMotor" begin="7200.00" route="kbt-11" end="10800.00" number="19"/>
    <flow id ="f_197" type = "phCar" begin="7200.00" route="kbt-11" end="10800.00" number="13"/>
    <flow id ="f_198" type = "phMotor" begin="7200.00" route="kbt-12" end="10800.00" number="7"/>
    <flow id ="f_199" type = "phCar" begin="7200.00" route="kbt-12" end="10800.00" number="5"/>
    <flow id ="f_200" type = "phMotor" begin="10800.00" route="ka-1" end="14400.00" number="307"/>
    <flow id ="f_201" type = "phCar" begin="10800.00" route="ka-1" end="14400.00" number="205"/>
    <flow id ="f_202" type = "phMotor" begin="10800.00" route="ka-8" end="14400.00" number="1058"/>
    <flow id ="f_203" type = "phCar" begin="10800.00" route="ka-8" end="14400.00" number="706"/>
    <flow id ="f_204" type = "phMotor" begin="10800.00" route="ka-10" end="14400.00" number="413"/>
    <flow id ="f_205" type = "phCar" begin="10800.00" route="ka-10" end="14400.00" number="276"/>
    <flow id ="f_206" type = "phMotor" begin="10800.00" route="ka-11" end="14400.00" number="1700"/>
    <flow id ="f_207" type = "phCar" begin="10800.00" route="ka-11" end="14400.00" number="1133"/>
    <flow id ="f_208" type = "phMotor" begin="10800.00" route="ka-12_to_kuf-2" end="14400.00" number="2161"/>
    <flow id ="f_209" type = "phCar" begin="10800.00" route="ka-12_to_kuf-2" end="14400.00" number="1440"/>
    <flow id ="f_210" type = "phMotor" begin="10800.00" route="ka-12_to_kuf-3" end="14400.00" number="140"/>
    <flow id ="f_211" type = "phCar" begin="10800.00" route="ka-12_to_kuf-3" end="14400.00" number="93"/>
    <flow id ="f_212" type = "phMotor" begin="10800.00" route="ka-12_to_kuf-3a" end="14400.00" number="16"/>
    <flow id ="f_213" type = "phCar" begin="10800.00" route="ka-12_to_kuf-3a" end="14400.00" number="10"/>
    <flow id ="f_214" type = "phMotor" begin="10800.00" route="kuf-7_to_kbt-2" end="14400.00" number="97"/>
    <flow id ="f_215" type = "phCar" begin="10800.00" route="kuf-7_to_kbt-2" end="14400.00" number="64"/>
    <flow id ="f_216" type = "phMotor" begin="10800.00" route="kuf-7_to_kbt-3" end="14400.00" number="1"/>
    <flow id ="f_217" type = "phCar" begin="10800.00" route="kuf-7_to_kbt-3" end="14400.00" number="1"/>
    <flow id ="f_218" type = "phMotor" begin="10800.00" route="kuf-8" end="14400.00" number="58"/>
    <flow id ="f_219" type = "phCar" begin="10800.00" route="kuf-8" end="14400.00" number="38"/>
    <flow id ="f_220" type = "phMotor" begin="10800.00" route="kuf-8a" end="14400.00" number="56"/>
    <flow id ="f_221" type = "phCar" begin="10800.00" route="kuf-8a" end="14400.00" number="38"/>
    <flow id ="f_222" type = "phMotor" begin="10800.00" route="kuf-9_to_ka-4" end="14400.00" number="56"/>
    <flow id ="f_223" type = "phCar" begin="10800.00" route="kuf-9_to_ka-4" end="14400.00" number="38"/>
    <flow id ="f_224" type = "phMotor" begin="10800.00" route="kuf-9_to_ka-6" end="14400.00" number="2"/>
    <flow id ="f_225" type = "phCar" begin="10800.00" route="kuf-9_to_ka-6" end="14400.00" number="2"/>
    <flow id ="f_226" type = "phMotor" begin="10800.00" route="kuf-10b_to_ka-4" end="14400.00" number="140"/>
    <flow id ="f_227" type = "phCar" begin="10800.00" route="kuf-10b_to_ka-4" end="14400.00" number="94"/>
    <flow id ="f_228" type = "phMotor" begin="10800.00" route="kuf-10b_to_ka-6" end="14400.00" number="7"/>
    <flow id ="f_229" type = "phCar" begin="10800.00" route="kuf-10b_to_ka-6" end="14400.00" number="4"/>
    <flow id ="f_230" type = "phMotor" begin="10800.00" route="kuf-10c_to_ka-4" end="14400.00" number="358"/>
    <flow id ="f_231" type = "phCar" begin="10800.00" route="kuf-10c_to_ka-4" end="14400.00" number="239"/>
    <flow id ="f_232" type = "phMotor" begin="10800.00" route="kuf-10c_to_ka-6" end="14400.00" number="17"/>
    <flow id ="f_233" type = "phCar" begin="10800.00" route="kuf-10c_to_ka-6" end="14400.00" number="11"/>
    <flow id ="f_234" type = "phMotor" begin="10800.00" route="kbt-4" end="14400.00" number="26"/>
    <flow id ="f_235" type = "phCar" begin="10800.00" route="kbt-4" end="14400.00" number="18"/>
    <flow id ="f_236" type = "phMotor" begin="10800.00" route="kbt-4a" end="14400.00" number="243"/>
    <flow id ="f_237" type = "phCar" begin="10800.00" route="kbt-4a" end="14400.00" number="162"/>
    <flow id ="f_238" type = "phMotor" begin="10800.00" route="kbt-5_to_kuf-4" end="14400.00" number="74"/>
    <flow id ="f_239" type = "phCar" begin="10800.00" route="kbt-5_to_kuf-4" end="14400.00" number="50"/>
    <flow id ="f_240" type = "phMotor" begin="10800.00" route="kbt-5_to_kuf-4a_to_kbt-2" end="14400.00" number="1"/>
    <flow id ="f_241" type = "phMotor" begin="10800.00" route="kbt-5_to_kuf-4a_to_kbt-3" end="14400.00" number="1"/>
    <flow id ="f_242" type = "phCar" begin="10800.00" route="kbt-5_to_kuf-4a_to_kbt-3" end="14400.00" number="1"/>
    <flow id ="f_243" type = "phMotor" begin="10800.00" route="kbt-5_to_kuf-4b" end="14400.00" number="64"/>
    <flow id ="f_244" type = "phCar" begin="10800.00" route="kbt-5_to_kuf-4b" end="14400.00" number="42"/>
    <flow id ="f_245" type = "phMotor" begin="10800.00" route="kbt-5_to_kuf-5" end="14400.00" number="2630"/>
    <flow id ="f_246" type = "phCar" begin="10800.00" route="kbt-5_to_kuf-5" end="14400.00" number="1754"/>
    <flow id ="f_247" type = "phMotor" begin="10800.00" route="kbt-6" end="14400.00" number="335"/>
    <flow id ="f_248" type = "phCar" begin="10800.00" route="kbt-6" end="14400.00" number="224"/>
    <flow id ="f_249" type = "phMotor" begin="10800.00" route="kbt-7" end="14400.00" number="366"/>
    <flow id ="f_250" type = "phCar" begin="10800.00" route="kbt-7" end="14400.00" number="244"/>
    <flow id ="f_251" type = "phMotor" begin="10800.00" route="kbt-8" end="14400.00" number="8"/>
    <flow id ="f_252" type = "phCar" begin="10800.00" route="kbt-8" end="14400.00" number="5"/>