<?xml version="1.0" encoding="UTF-8"?>

<!-- generated on 2025-03-13 15:55:50.793556 by randomTrips.py v1_19_0+0000-baa66a0f364
<configuration>
    <net-file value="C:\Users\marke\OneDrive\Documents\CoE199\commute\SUMO Config\new.osm.net.xml"/>
    <additional-files value="C:\Users\marke\OneDrive\Documents\CoE199\commute\SUMO Config\detector.add.xml"/>
    <route-file value="C:\Users\marke\OneDrive\Documents\CoE199\rand.rou.xml"/>
</configuration>
-->

<!-- generated on 2025-03-13 15:55:50 by Eclipse SUMO duarouter Version 1.19.0
<configuration xmlns:xsi="http://www.w3.org/2001/XMLSchema-instance" xsi:noNamespaceSchemaLocation="http://sumo.dlr.de/xsd/duarouterConfiguration.xsd">

    <input>
        <net-file value="C:\Users\marke\OneDrive\Documents\CoE199\commute\SUMO Config\new.osm.net.xml"/>
        <additional-files value="C:\Users\marke\OneDrive\Documents\CoE199\commute\SUMO Config\detector.add.xml"/>
        <route-files value="trips.trips.xml"/>
    </input>

    <output>
        <output-file value="C:\Users\marke\OneDrive\Documents\CoE199\rand.rou.xml"/>
        <alternatives-output value="NUL"/>
    </output>

    <time>
        <begin value="0"/>
        <end value="3600"/>
    </time>

    <report>
        <no-warnings value="true"/>
        <ignore-errors value="true"/>
        <no-step-log value="true"/>
    </report>

</configuration>
-->

<routes xmlns:xsi="http://www.w3.org/2001/XMLSchema-instance" xsi:noNamespaceSchemaLocation="http://sumo.dlr.de/xsd/routes_file.xsd">
    <vehicle id="0" depart="0.00">
        <route edges="b.gonzales-road-in L2"/>
    </vehicle>
    <vehicle id="2" depart="2.00">
        <route edges="thornton_drive-extension-in thornton_drive-upper_in L2 L3 L4 L5 katip-aurora-curve"/>
    </vehicle>
    <vehicle id="3" depart="3.00">
        <route edges="univ_road-lower_in L3 L4"/>
    </vehicle>
    <vehicle id="5" depart="5.00">
        <route edges="L6 aurora-lower_out"/>
    </vehicle>
    <vehicle id="6" depart="6.00">
        <route edges="L1 L2 L3 L4 L5 L6"/>
    </vehicle>
    <vehicle id="12" depart="12.00">
        <route edges="univ_road-upper_in R4 R3"/>
    </vehicle>
    <vehicle id="13" depart="13.00">
        <route edges="L3 L4"/>
    </vehicle>
    <vehicle id="14" depart="14.00">
        <route edges="thornton_drive-upper_in L2 L3 L4 L5 katip-aurora-curve aurora-upper_out"/>
    </vehicle>
    <vehicle id="15" depart="15.00">
        <route edges="thornton_drive-out thornton_drive-extension-out"/>
    </vehicle>
    <vehicle id="24" depart="24.00">
        <route edges="b.gonzales-road-in L2 R4 R3"/>
    </vehicle>
    <vehicle id="27" depart="27.00">
        <route edges="f.dela_rosa-road L3 L4 L5 katip-aurora-curve aurora-upper_out"/>
    </vehicle>
    <vehicle id="34" depart="34.00">
        <route edges="R3 R2 R1"/>
    </vehicle>
    <vehicle id="36" depart="36.00">
        <route edges="thornton_drive-upper_in R2"/>
    </vehicle>
    <vehicle id="37" depart="37.00">
        <route edges="f.dela_rosa-road R4"/>
    </vehicle>
    <vehicle id="40" depart="40.00">
        <route edges="aurora-upper_in R6 R5 R4 R3 R2 R1"/>
    </vehicle>
    <vehicle id="41" depart="41.00">
        <route edges="aurora-upper_in R6 R5 univ_road-lower_out"/>
    </vehicle>
    <vehicle id="43" depart="43.00">
        <route edges="xavier-in L5 L6 aurora-lower_out"/>
    </vehicle>
    <vehicle id="44" depart="44.00">
        <route edges="L3"/>
    </vehicle>
    <vehicle id="47" depart="47.00">
        <route edges="L2 R4"/>
    </vehicle>
    <vehicle id="48" depart="48.00">
        <route edges="xavier-in L5 L6 aurora-lower_out"/>
    </vehicle>
    <vehicle id="50" depart="50.00">
        <route edges="L1 thornton_drive-out thornton_drive-extension-out"/>
    </vehicle>
    <vehicle id="55" depart="55.00">
        <route edges="thornton_drive-upper_in R2 R1"/>
    </vehicle>
    <vehicle id="58" depart="58.00">
        <route edges="R3 b.gonzales-road-out"/>
    </vehicle>
    <vehicle id="59" depart="59.00">
        <route edges="b.gonzales-road-in L2 L3 L4 L5"/>
    </vehicle>
    <vehicle id="62" depart="62.00">
        <route edges="L1 R2"/>
    </vehicle>
    <vehicle id="63" depart="63.00">
        <route edges="L1 L2 univ_road-upper_out"/>
    </vehicle>
    <vehicle id="64" depart="64.00">
        <route edges="thornton_drive-upper_in L2 R4 R3 thornton_drive-out"/>
    </vehicle>
    <vehicle id="66" depart="66.00">
        <route edges="thornton_drive-upper_in L2 univ_road-upper_out"/>
    </vehicle>
    <vehicle id="70" depart="70.00">
        <route edges="R7 aurora-mid_int"/>
    </vehicle>
    <vehicle id="80" depart="80.00">
        <route edges="L2 R4 R3 b.gonzales-road-out"/>
    </vehicle>
    <vehicle id="82" depart="82.00">
        <route edges="thornton_drive-upper_in L2 L3"/>
    </vehicle>
    <vehicle id="89" depart="89.00">
        <route edges="R6"/>
    </vehicle>
    <vehicle id="90" depart="90.00">
        <route edges="thornton_drive-extension-in thornton_drive-upper_in L2 L3 L4 L5 katip-aurora-curve"/>
    </vehicle>
    <vehicle id="92" depart="92.00">
        <route edges="R6 R5 R4 R3"/>
    </vehicle>
    <vehicle id="95" depart="95.00">
        <route edges="R6 R5 R4 R3 R2 R1"/>
    </vehicle>
    <vehicle id="101" depart="101.00">
        <route edges="thornton_drive-upper_in L2 L3 L4 L5"/>
    </vehicle>
    <vehicle id="107" depart="107.00">
        <route edges="univ_road-upper_in L3 L4 xavier-out"/>
    </vehicle>
    <vehicle id="112" depart="112.00">
        <route edges="L2 L3 L4 L5 katip-aurora-curve aurora-upper_out"/>
    </vehicle>
    <vehicle id="114" depart="114.00">
        <route edges="L4 xavier-out"/>
    </vehicle>
    <vehicle id="115" depart="115.00">
        <route edges="L3 L4 L5 L6"/>
    </vehicle>
    <vehicle id="119" depart="119.00">
        <route edges="aurora-upper_in aurora-mid_int aurora-upper_out"/>
    </vehicle>
    <vehicle id="124" depart="124.00">
        <route edges="f.dela_rosa-road R4 R3 R2"/>
    </vehicle>
    <vehicle id="133" depart="133.00">
        <route edges="b.gonzales-road-in L2 L3 L4 xavier-out"/>
    </vehicle>
    <vehicle id="136" depart="136.00">
        <route edges="f.dela_rosa-road univ_road-upper_out"/>
    </vehicle>
    <vehicle id="137" depart="137.00">
        <route edges="L4"/>
    </vehicle>
    <vehicle id="141" depart="141.00">
        <route edges="b.gonzales-road-in R2 R1"/>
    </vehicle>
    <vehicle id="143" depart="143.00">
        <route edges="thornton_drive-upper_in L2 L3 L4"/>
    </vehicle>
    <vehicle id="144" depart="144.00">
        <route edges="R6 R5 R4 R3 R2 R1"/>
    </vehicle>
    <vehicle id="146" depart="146.00">
        <route edges="b.gonzales-road-in R2 R1"/>
    </vehicle>
    <vehicle id="149" depart="149.00">
        <route edges="L2 univ_road-lower_out"/>
    </vehicle>
    <vehicle id="152" depart="152.00">
        <route edges="L4 L5"/>
    </vehicle>
    <vehicle id="160" depart="160.00">
        <route edges="thornton_drive-upper_in L2 L3 L4 xavier-out"/>
    </vehicle>
    <vehicle id="162" depart="162.00">
        <route edges="L1 thornton_drive-out thornton_drive-extension-out"/>
    </vehicle>
    <vehicle id="167" depart="167.00">
        <route edges="thornton_drive-upper_in"/>
    </vehicle>
    <vehicle id="171" depart="171.00">
        <route edges="L1 L2 L3 L4 L5 L6"/>
    </vehicle>
    <vehicle id="174" depart="174.00">
        <route edges="f.dela_rosa-road R4"/>
    </vehicle>
    <vehicle id="175" depart="175.00">
        <route edges="xavier-in L5 L6 aurora-lower_out"/>
    </vehicle>
    <vehicle id="176" depart="176.00">
        <route edges="univ_road-upper_in L3 L4"/>
    </vehicle>
    <vehicle id="177" depart="177.00">
        <route edges="xavier-in L5 L6"/>
    </vehicle>
    <vehicle id="180" depart="180.00">
        <route edges="thornton_drive-extension-in thornton_drive-upper_in R2"/>
    </vehicle>
    <vehicle id="181" depart="181.00">
        <route edges="b.gonzales-road-in L2 L3 L4 L5 L6 aurora-lower_out"/>
    </vehicle>
    <vehicle id="184" depart="184.00">
        <route edges="L1 L2 univ_road-upper_out"/>
    </vehicle>
    <vehicle id="186" depart="186.00">
        <route edges="thornton_drive-extension-in thornton_drive-upper_in L2 L3 L4 L5 katip-aurora-curve"/>
    </vehicle>
    <vehicle id="188" depart="188.00">
        <route edges="f.dela_rosa-road R4 R3 R2"/>
    </vehicle>
    <vehicle id="192" depart="192.00">
        <route edges="R6 R5 R4 R3 R2"/>
    </vehicle>
    <vehicle id="194" depart="194.00">
        <route edges="univ_road-upper_in L3 L4 L5 katip-aurora-curve"/>
    </vehicle>
    <vehicle id="195" depart="195.00">
        <route edges="univ_road-lower_in L3 L4 L5 katip-aurora-curve aurora-upper_out"/>
    </vehicle>
    <vehicle id="197" depart="197.00">
        <route edges="L1 R2 R1"/>
    </vehicle>
    <vehicle id="203" depart="203.00">
        <route edges="L3 L4 L5 L6 aurora-lower_out"/>
    </vehicle>
    <vehicle id="204" depart="204.00">
        <route edges="b.gonzales-road-in L2 R4 R3"/>
    </vehicle>
    <vehicle id="209" depart="209.00">
        <route edges="thornton_drive-upper_in L2 L3"/>
    </vehicle>
    <vehicle id="210" depart="210.00">
        <route edges="R6 R5 R4 R3 b.gonzales-road-out"/>
    </vehicle>
    <vehicle id="211" depart="211.00">
        <route edges="L5 katip-aurora-curve"/>
    </vehicle>
    <vehicle id="214" depart="214.00">
        <route edges="thornton_drive-extension-in thornton_drive-lower_in"/>
    </vehicle>
    <vehicle id="220" depart="220.00">
        <route edges="f.dela_rosa-road L3 L4 xavier-out"/>
    </vehicle>
    <vehicle id="221" depart="221.00">
        <route edges="aurora-upper_in R6 R5 univ_road-upper_out"/>
    </vehicle>
    <vehicle id="222" depart="222.00">
        <route edges="univ_road-lower_in L3 L4 L5 katip-aurora-curve aurora-upper_out"/>
    </vehicle>
    <vehicle id="229" depart="229.00">
        <route edges="b.gonzales-road-in R2 R1"/>
    </vehicle>
    <vehicle id="230" depart="230.00">
        <route edges="L2 R4 R3 R2 R1"/>
    </vehicle>
    <vehicle id="231" depart="231.00">
        <route edges="R2"/>
    </vehicle>
    <vehicle id="237" depart="237.00">
        <route edges="R6 R5 univ_road-lower_out"/>
    </vehicle>
    <vehicle id="242" depart="242.00">
        <route edges="thornton_drive-upper_in L2 univ_road-upper_out"/>
    </vehicle>
    <vehicle id="243" depart="243.00">
        <route edges="R6 R5 R4 R3 thornton_drive-out thornton_drive-extension-out"/>
    </vehicle>
    <vehicle id="244" depart="244.00">
        <route edges="aurora-mid_int aurora-upper_out"/>
    </vehicle>
    <vehicle id="250" depart="250.00">
        <route edges="b.gonzales-road-in L2"/>
    </vehicle>
    <vehicle id="252" depart="252.00">
        <route edges="L1 b.gonzales-road-out"/>
    </vehicle>
    <vehicle id="254" depart="254.00">
        <route edges="L2 R4"/>
    </vehicle>
    <vehicle id="257" depart="257.00">
        <route edges="thornton_drive-extension-in thornton_drive-upper_in L2 R4 R3 thornton_drive-out"/>
    </vehicle>
    <vehicle id="259" depart="259.00">
        <route edges="L1 L2 L3 L4 L5 L6 aurora-lower_out"/>
    </vehicle>
    <vehicle id="263" depart="263.00">
        <route edges="univ_road-upper_in L3 L4 L5 L6"/>
    </vehicle>
    <vehicle id="264" depart="264.00">
        <route edges="L1 L2 L3 L4 L5"/>
    </vehicle>
    <vehicle id="265" depart="265.00">
        <route edges="L4 L5 katip-aurora-curve"/>
    </vehicle>
    <vehicle id="266" depart="266.00">
        <route edges="aurora-upper_in L7"/>
    </vehicle>
    <vehicle id="268" depart="268.00">
        <route edges="L5 katip-aurora-curve aurora-upper_out"/>
    </vehicle>
    <vehicle id="269" depart="269.00">
        <route edges="thornton_drive-extension-in thornton_drive-upper_in L2 L3 L4"/>
    </vehicle>
    <vehicle id="273" depart="273.00">
        <route edges="univ_road-upper_in R4"/>
    </vehicle>
    <vehicle id="277" depart="277.00">
        <route edges="thornton_drive-upper_in L2 L3 L4 L5 katip-aurora-curve aurora-upper_out"/>
    </vehicle>
    <vehicle id="278" depart="278.00">
        <route edges="L4 xavier-out"/>
    </vehicle>
    <vehicle id="280" depart="280.00">
        <route edges="R6 R5 R4 R3"/>
    </vehicle>
    <vehicle id="282" depart="282.00">
        <route edges="thornton_drive-upper_in L2 R4 R3 thornton_drive-out"/>
    </vehicle>
    <vehicle id="283" depart="283.00">
        <route edges="L3 L4 xavier-out"/>
    </vehicle>
    <vehicle id="284" depart="284.00">
        <route edges="b.gonzales-road-in thornton_drive-out"/>
    </vehicle>
    <vehicle id="286" depart="286.00">
        <route edges="thornton_drive-extension-in thornton_drive-upper_in L2 L3 L4 xavier-out"/>
    </vehicle>
    <vehicle id="289" depart="289.00">
        <route edges="R6 R5 R4 R3 thornton_drive-out thornton_drive-extension-out"/>
    </vehicle>
    <vehicle id="293" depart="293.00">
        <route edges="R7 aurora-mid_int aurora-upper_out"/>
    </vehicle>
    <vehicle id="295" depart="295.00">
        <route edges="thornton_drive-upper_in L2 L3 L4 L5 L6"/>
    </vehicle>
    <vehicle id="299" depart="299.00">
        <route edges="L1 L2 univ_road-upper_out"/>
    </vehicle>
    <vehicle id="306" depart="306.00">
        <route edges="aurora-upper_in R6"/>
    </vehicle>
    <vehicle id="308" depart="308.00">
        <route edges="thornton_drive-extension-in thornton_drive-upper_in R2"/>
    </vehicle>
    <vehicle id="315" depart="315.00">
        <route edges="xavier-in L5 L6 aurora-lower_out"/>
    </vehicle>
    <vehicle id="328" depart="328.00">
        <route edges="L2 R4 R3 b.gonzales-road-out"/>
    </vehicle>
    <vehicle id="329" depart="329.00">
        <route edges="L2 L3 L4 L5"/>
    </vehicle>
    <vehicle id="330" depart="330.00">
        <route edges="aurora-upper_in R6 R5 R4 R3 R2"/>
    </vehicle>
    <vehicle id="337" depart="337.00">
        <route edges="b.gonzales-road-in L2 L3 L4 L5 katip-aurora-curve aurora-upper_out"/>
    </vehicle>
    <vehicle id="338" depart="338.00">
        <route edges="thornton_drive-extension-in thornton_drive-upper_in L2 univ_road-upper_out"/>
    </vehicle>
    <vehicle id="340" depart="340.00">
        <route edges="f.dela_rosa-road L3 L4 L5"/>
    </vehicle>
    <vehicle id="343" depart="343.00">
        <route edges="aurora-upper_in R6 R5 R4 R3 R2 R1"/>
    </vehicle>
    <vehicle id="348" depart="348.00">
        <route edges="f.dela_rosa-road univ_road-upper_out"/>
    </vehicle>
    <vehicle id="350" depart="350.00">
        <route edges="f.dela_rosa-road univ_road-lower_out"/>
    </vehicle>
    <vehicle id="355" depart="355.00">
        <route edges="katip-aurora-curve"/>
    </vehicle>
    <vehicle id="356" depart="356.00">
        <route edges="univ_road-upper_in L3 L4 L5 L6 aurora-lower_out"/>
    </vehicle>
    <vehicle id="359" depart="359.00">
        <route edges="R4 R3 R2 R1"/>
    </vehicle>
    <vehicle id="360" depart="360.00">
        <route edges="L3 L4 xavier-out"/>
    </vehicle>
    <vehicle id="362" depart="362.00">
        <route edges="univ_road-upper_in L3 L4 xavier-out"/>
    </vehicle>
    <vehicle id="363" depart="363.00">
        <route edges="f.dela_rosa-road R4 R3 R2 R1"/>
    </vehicle>
    <vehicle id="366" depart="366.00">
        <route edges="univ_road-lower_in L3 L4 L5 L6"/>
    </vehicle>
    <vehicle id="367" depart="367.00">
        <route edges="aurora-upper_in R6 R5 R4 R3 b.gonzales-road-out"/>
    </vehicle>
    <vehicle id="369" depart="369.00">
        <route edges="R4 R3 R2"/>
    </vehicle>
    <vehicle id="380" depart="380.00">
        <route edges="thornton_drive-extension-in thornton_drive-upper_in b.gonzales-road-out"/>
    </vehicle>
    <vehicle id="381" depart="381.00">
        <route edges="thornton_drive-extension-in thornton_drive-upper_in L2 L3 L4 L5 L6"/>
    </vehicle>
    <vehicle id="384" depart="384.00">
        <route edges="L4 xavier-out"/>
    </vehicle>
    <vehicle id="395" depart="395.00">
        <route edges="univ_road-upper_in L3 L4 L5 L6 aurora-lower_out"/>
    </vehicle>
    <vehicle id="396" depart="396.00">
        <route edges="thornton_drive-upper_in"/>
    </vehicle>
    <vehicle id="398" depart="398.00">
        <route edges="R6 R5 univ_road-upper_out"/>
    </vehicle>
    <vehicle id="400" depart="400.00">
        <route edges="R3 R2"/>
    </vehicle>
    <vehicle id="404" depart="404.00">
        <route edges="aurora-mid_int"/>
    </vehicle>
    <vehicle id="406" depart="406.00">
        <route edges="L5 katip-aurora-curve"/>
    </vehicle>
    <vehicle id="407" depart="407.00">
        <route edges="aurora-upper_in L7"/>
    </vehicle>
    <vehicle id="409" depart="409.00">
        <route edges="thornton_drive-extension-in thornton_drive-upper_in L2 L3 L4 L5 katip-aurora-curve"/>
    </vehicle>
    <vehicle id="411" depart="411.00">
        <route edges="f.dela_rosa-road R4 R3 thornton_drive-out"/>
    </vehicle>
    <vehicle id="413" depart="413.00">
        <route edges="L1 L2 L3 L4 L5 L6 aurora-lower_out"/>
    </vehicle>
    <vehicle id="417" depart="417.00">
        <route edges="thornton_drive-extension-in thornton_drive-upper_in L2 R4"/>
    </vehicle>
    <vehicle id="418" depart="418.00">
        <route edges="f.dela_rosa-road L3 L4 L5"/>
    </vehicle>
    <vehicle id="422" depart="422.00">
        <route edges="thornton_drive-upper_in"/>
    </vehicle>
    <vehicle id="423" depart="423.00">
        <route edges="R5 R4 R3 R2"/>
    </vehicle>
    <vehicle id="425" depart="425.00">
        <route edges="thornton_drive-upper_in L2"/>
    </vehicle>
    <vehicle id="426" depart="426.00">
        <route edges="L2 R4 R3 b.gonzales-road-out"/>
    </vehicle>
    <vehicle id="427" depart="427.00">
        <route edges="univ_road-upper_in L3 L4 xavier-out"/>
    </vehicle>
    <vehicle id="432" depart="432.00">
        <route edges="L2 R4 R3 thornton_drive-out"/>
    </vehicle>
    <vehicle id="433" depart="433.00">
        <route edges="R3"/>
    </vehicle>
    <vehicle id="434" depart="434.00">
        <route edges="L4 L5 L6 aurora-lower_out"/>
    </vehicle>
    <vehicle id="435" depart="435.00">
        <route edges="aurora-upper_in R6 R5 R4 R3 thornton_drive-out"/>
    </vehicle>
    <vehicle id="437" depart="437.00">
        <route edges="thornton_drive-upper_in L2 L3 L4 L5 katip-aurora-curve aurora-upper_out"/>
    </vehicle>
    <vehicle id="440" depart="440.00">
        <route edges="R2 R1"/>
    </vehicle>
    <vehicle id="441" depart="441.00">
        <route edges="L1 thornton_drive-out"/>
    </vehicle>
    <vehicle id="442" depart="442.00">
        <route edges="univ_road-lower_in L3 L4 L5 katip-aurora-curve"/>
    </vehicle>
    <vehicle id="449" depart="449.00">
        <route edges="aurora-upper_in aurora-mid_int"/>
    </vehicle>
    <vehicle id="454" depart="454.00">
        <route edges="L2 L3 L4 L5 katip-aurora-curve aurora-upper_out"/>
    </vehicle>
    <vehicle id="456" depart="456.00">
        <route edges="R3 thornton_drive-out"/>
    </vehicle>
    <vehicle id="457" depart="457.00">
        <route edges="b.gonzales-road-in L2 R4 R3"/>
    </vehicle>
    <vehicle id="458" depart="458.00">
        <route edges="b.gonzales-road-in L2 L3 L4 L5 katip-aurora-curve aurora-upper_out"/>
    </vehicle>
    <vehicle id="459" depart="459.00">
        <route edges="f.dela_rosa-road R4 R3 thornton_drive-out thornton_drive-extension-out"/>
    </vehicle>
    <vehicle id="461" depart="461.00">
        <route edges="b.gonzales-road-in L2 univ_road-lower_out"/>
    </vehicle>
    <vehicle id="462" depart="462.00">
        <route edges="f.dela_rosa-road R4 R3 R2"/>
    </vehicle>
    <vehicle id="463" depart="463.00">
        <route edges="R7 aurora-mid_int"/>
    </vehicle>
    <vehicle id="464" depart="464.00">
        <route edges="thornton_drive-extension-in thornton_drive-upper_in L2 L3 L4"/>
    </vehicle>
    <vehicle id="465" depart="465.00">
        <route edges="R3 thornton_drive-out thornton_drive-extension-out"/>
    </vehicle>
    <vehicle id="466" depart="466.00">
        <route edges="L5"/>
    </vehicle>
    <vehicle id="471" depart="471.00">
        <route edges="thornton_drive-out thornton_drive-extension-out"/>
    </vehicle>
    <vehicle id="473" depart="473.00">
        <route edges="xavier-in L5"/>
    </vehicle>
    <vehicle id="475" depart="475.00">
        <route edges="thornton_drive-extension-in thornton_drive-upper_in L2 L3 L4 xavier-out"/>
    </vehicle>
    <vehicle id="478" depart="478.00">
        <route edges="L1 L2 L3 L4 L5 L6 aurora-lower_out"/>
    </vehicle>
    <vehicle id="480" depart="480.00">
        <route edges="f.dela_rosa-road L3 L4 L5 katip-aurora-curve aurora-upper_out"/>
    </vehicle>
    <vehicle id="483" depart="483.00">
        <route edges="L1 L2 univ_road-lower_out"/>
    </vehicle>
    <vehicle id="484" depart="484.00">
        <route edges="aurora-upper_in R6 R5 univ_road-lower_out"/>
    </vehicle>
    <vehicle id="492" depart="492.00">
        <route edges="f.dela_rosa-road R4 R3 thornton_drive-out thornton_drive-extension-out"/>
    </vehicle>
    <vehicle id="494" depart="494.00">
        <route edges="thornton_drive-extension-in thornton_drive-upper_in L2 L3 L4 L5"/>
    </vehicle>
    <vehicle id="498" depart="498.00">
        <route edges="R5"/>
    </vehicle>
    <vehicle id="500" depart="500.00">
        <route edges="L3 L4 L5 katip-aurora-curve"/>
    </vehicle>
    <vehicle id="502" depart="502.00">
        <route edges="R4"/>
    </vehicle>
    <vehicle id="505" depart="505.00">
        <route edges="f.dela_rosa-road R4 R3 b.gonzales-road-out"/>
    </vehicle>
    <vehicle id="511" depart="511.00">
        <route edges="thornton_drive-upper_in R2"/>
    </vehicle>
    <vehicle id="514" depart="514.00">
        <route edges="L4 L5"/>
    </vehicle>
    <vehicle id="520" depart="520.00">
        <route edges="thornton_drive-extension-in thornton_drive-upper_in L2 L3 L4 L5 L6 aurora-lower_out"/>
    </vehicle>
    <vehicle id="523" depart="523.00">
        <route edges="L3 L4 L5 L6 aurora-lower_out"/>
    </vehicle>
    <vehicle id="524" depart="524.00">
        <route edges="univ_road-upper_in L3"/>
    </vehicle>
    <vehicle id="530" depart="530.00">
        <route edges="univ_road-lower_in L3"/>
    </vehicle>
    <vehicle id="531" depart="531.00">
        <route edges="L3 L4 L5 katip-aurora-curve aurora-upper_out"/>
    </vehicle>
    <vehicle id="532" depart="532.00">
        <route edges="L2 R4 R3 R2 R1"/>
    </vehicle>
    <vehicle id="536" depart="536.00">
        <route edges="b.gonzales-road-in L2 L3 L4"/>
    </vehicle>
    <vehicle id="543" depart="543.00">
        <route edges="R6 R5 R4 R3 b.gonzales-road-out"/>
    </vehicle>
    <vehicle id="545" depart="545.00">
        <route edges="univ_road-upper_in L3"/>
    </vehicle>
    <vehicle id="549" depart="549.00">
        <route edges="aurora-upper_in aurora-mid_int"/>
    </vehicle>
    <vehicle id="551" depart="551.00">
        <route edges="R4 R3 b.gonzales-road-out"/>
    </vehicle>
    <vehicle id="552" depart="552.00">
        <route edges="thornton_drive-extension-in thornton_drive-upper_in"/>
    </vehicle>
    <vehicle id="553" depart="553.00">
        <route edges="thornton_drive-extension-in thornton_drive-upper_in L2 L3 L4 xavier-out"/>
    </vehicle>
    <vehicle id="554" depart="554.00">
        <route edges="b.gonzales-road-in L2 R4 R3"/>
    </vehicle>
    <vehicle id="555" depart="555.00">
        <route edges="aurora-upper_in L7"/>
    </vehicle>
    <vehicle id="559" depart="559.00">
        <route edges="aurora-upper_in R6 R5 R4 R3 thornton_drive-out"/>
    </vehicle>
    <vehicle id="560" depart="560.00">
        <route edges="thornton_drive-upper_in L2 L3 L4 xavier-out"/>
    </vehicle>
    <vehicle id="563" depart="563.00">
        <route edges="univ_road-upper_in R4 R3 thornton_drive-out"/>
    </vehicle>
    <vehicle id="569" depart="569.00">
        <route edges="b.gonzales-road-in L2"/>
    </vehicle>
    <vehicle id="571" depart="571.00">
        <route edges="R6 R5 R4 R3"/>
    </vehicle>
    <vehicle id="572" depart="572.00">
        <route edges="R5 R4 R3 thornton_drive-out thornton_drive-extension-out"/>
    </vehicle>
    <vehicle id="574" depart="574.00">
        <route edges="L3"/>
    </vehicle>
    <vehicle id="575" depart="575.00">
        <route edges="L4 L5 katip-aurora-curve aurora-upper_out"/>
    </vehicle>
    <vehicle id="576" depart="576.00">
        <route edges="f.dela_rosa-road R4 R3 R2 R1"/>
    </vehicle>
    <vehicle id="579" depart="579.00">
        <route edges="thornton_drive-extension-in thornton_drive-upper_in L2 L3 L4"/>
    </vehicle>
    <vehicle id="580" depart="580.00">
        <route edges="R6 R5 R4 R3 R2 R1"/>
    </vehicle>
    <vehicle id="582" depart="582.00">
        <route edges="f.dela_rosa-road L3"/>
    </vehicle>
    <vehicle id="584" depart="584.00">
        <route edges="L1 R2"/>
    </vehicle>
    <vehicle id="586" depart="586.00">
        <route edges="R2"/>
    </vehicle>
    <vehicle id="587" depart="587.00">
        <route edges="L1 thornton_drive-out thornton_drive-extension-out"/>
    </vehicle>
    <vehicle id="590" depart="590.00">
        <route edges="thornton_drive-out"/>
    </vehicle>
    <vehicle id="592" depart="592.00">
        <route edges="L2"/>
    </vehicle>
    <vehicle id="594" depart="594.00">
        <route edges="aurora-upper_in aurora-mid_int"/>
    </vehicle>
    <vehicle id="597" depart="597.00">
        <route edges="R4 R3 thornton_drive-out"/>
    </vehicle>
    <vehicle id="598" depart="598.00">
        <route edges="b.gonzales-road-in thornton_drive-out"/>
    </vehicle>
    <vehicle id="599" depart="599.00">
        <route edges="univ_road-lower_in L3 L4"/>
    </vehicle>
    <vehicle id="602" depart="602.00">
        <route edges="R5 R4 R3 R2"/>
    </vehicle>
    <vehicle id="603" depart="603.00">
        <route edges="R4 R3 R2"/>
    </vehicle>
    <vehicle id="604" depart="604.00">
        <route edges="L5 L6 aurora-lower_out"/>
    </vehicle>
    <vehicle id="605" depart="605.00">
        <route edges="L3 L4 L5 L6 aurora-lower_out"/>
    </vehicle>
    <vehicle id="607" depart="607.00">
        <route edges="thornton_drive-extension-in thornton_drive-upper_in L2 R4 R3 thornton_drive-out"/>
    </vehicle>
    <vehicle id="609" depart="609.00">
        <route edges="L4 L5 L6"/>
    </vehicle>
    <vehicle id="611" depart="611.00">
        <route edges="f.dela_rosa-road L3 L4 L5 L6"/>
    </vehicle>
    <vehicle id="613" depart="613.00">
        <route edges="thornton_drive-extension-in thornton_drive-lower_in"/>
    </vehicle>
    <vehicle id="615" depart="615.00">
        <route edges="aurora-upper_in R6 R5 R4 R3 b.gonzales-road-out"/>
    </vehicle>
    <vehicle id="617" depart="617.00">
        <route edges="b.gonzales-road-in L2 L3 L4 L5"/>
    </vehicle>
    <vehicle id="619" depart="619.00">
        <route edges="R3 R2 R1"/>
    </vehicle>
    <vehicle id="620" depart="620.00">
        <route edges="L2 L3 L4 L5 L6 aurora-lower_out"/>
    </vehicle>
    <vehicle id="622" depart="622.00">
        <route edges="L2 R4 R3 thornton_drive-out"/>
    </vehicle>
    <vehicle id="624" depart="624.00">
        <route edges="thornton_drive-upper_in L2 L3 L4 L5 katip-aurora-curve aurora-upper_out"/>
    </vehicle>
    <vehicle id="632" depart="632.00">
        <route edges="R4 R3 thornton_drive-out thornton_drive-extension-out"/>
    </vehicle>
    <vehicle id="640" depart="640.00">
        <route edges="L2 L3 L4"/>
    </vehicle>
    <vehicle id="641" depart="641.00">
        <route edges="f.dela_rosa-road R4 R3 R2 R1"/>
    </vehicle>
    <vehicle id="642" depart="642.00">
        <route edges="thornton_drive-extension-in thornton_drive-upper_in b.gonzales-road-out"/>
    </vehicle>
    <vehicle id="646" depart="646.00">
        <route edges="xavier-in L5 katip-aurora-curve"/>
    </vehicle>
    <vehicle id="648" depart="648.00">
        <route edges="univ_road-upper_in R4 R3 R2"/>
    </vehicle>
    <vehicle id="651" depart="651.00">
        <route edges="thornton_drive-out thornton_drive-extension-out"/>
    </vehicle>
    <vehicle id="654" depart="654.00">
        <route edges="R5 R4 R3"/>
    </vehicle>
    <vehicle id="661" depart="661.00">
        <route edges="L1 L2 R4 R3"/>
    </vehicle>
    <vehicle id="666" depart="666.00">
        <route edges="R6 R5 R4"/>
    </vehicle>
    <vehicle id="673" depart="673.00">
        <route edges="univ_road-upper_in L3 L4 xavier-out"/>
    </vehicle>
    <vehicle id="681" depart="681.00">
        <route edges="thornton_drive-upper_in R2 R1"/>
    </vehicle>
    <vehicle id="682" depart="682.00">
        <route edges="thornton_drive-lower_in R1"/>
    </vehicle>
    <vehicle id="683" depart="683.00">
        <route edges="univ_road-lower_in L3 L4 L5"/>
    </vehicle>
    <vehicle id="684" depart="684.00">
        <route edges="R6 R5 univ_road-upper_out"/>
    </vehicle>
    <vehicle id="687" depart="687.00">
        <route edges="L2 L3 L4 L5 L6 aurora-lower_out"/>
    </vehicle>
    <vehicle id="694" depart="694.00">
        <route edges="L4 L5 katip-aurora-curve"/>
    </vehicle>
    <vehicle id="696" depart="696.00">
        <route edges="L2 R4 R3 R2 R1"/>
    </vehicle>
    <vehicle id="698" depart="698.00">
        <route edges="thornton_drive-extension-in thornton_drive-upper_in L2 L3 L4 L5 L6 aurora-lower_out"/>
    </vehicle>
    <vehicle id="701" depart="701.00">
        <route edges="R6 R5 R4 R3 thornton_drive-out"/>
    </vehicle>
    <vehicle id="703" depart="703.00">
        <route edges="univ_road-lower_in L3 L4 L5 katip-aurora-curve aurora-upper_out"/>
    </vehicle>
    <vehicle id="704" depart="704.00">